version 2
run WithBeaconing-0-20250822-12:13:25-4627
attr configname WithBeaconing
attr datetime 20250822-12:13:25
attr experiment WithBeaconing
attr inifile omnetpp.ini
attr iterationvars ""
attr iterationvarsf ""
attr measurement ""
attr network RSUExampleScenario
attr processid 4627
attr repetition 0
attr replication #0
attr resultdir results
attr runnumber 0
attr seedset 210041000
param *.node[*].appl.sendBeacons true
param *.playgroundSizeX 1700m
param *.playgroundSizeY 1700m
param *.playgroundSizeZ 50m
param *.annotations.draw true
param *.manager.updateInterval 0.1s
param *.manager.host "\"localhost\""
param *.manager.port 9999
param *.manager.autoShutdown true
param *.manager.launchConfig "xmldoc(\"simulation_junction.launchd.xml\")"
param *.connectionManager.sendDirect true
param *.connectionManager.maxInterfDist 2600m
param *.connectionManager.drawMaxIntfDist false
param *.**.nic.mac1609_4.useServiceChannel false
param *.**.nic.mac1609_4.txPower 20mW
param *.**.nic.mac1609_4.bitrate 6Mbps
param *.**.nic.phy80211p.minPowerLevel -110dBm
param *.**.nic.phy80211p.useNoiseFloor true
param *.**.nic.phy80211p.noiseFloor -98dBm
param *.**.nic.phy80211p.decider "xmldoc(\"config.xml\")"
param *.**.nic.phy80211p.analogueModels "xmldoc(\"config.xml\")"
param *.**.nic.phy80211p.usePropagationDelay true
param *.**.nic.phy80211p.antenna "xmldoc(\"antenna.xml\", \"/root/Antenna[@id='monopole']\")"
param *.node[*].nic.phy80211p.antennaOffsetY "0 m"
param *.node[*].nic.phy80211p.antennaOffsetZ "1.895 m"
param *.node[*].applType "\"TraCIDemo11p\""
param *.node[*].appl.headerLength "80 bit"
param *.node[*].appl.sendBeacons false
param *.node[*].appl.dataOnSch false
param *.node[*].appl.beaconInterval 0.1s
param **.node[*].appl.dataUserPriority 5
param **.node[*].appl.beaconUserPriority 7
param *.node[*].veinsmobility.x 0
param *.node[*].veinsmobility.y 0
param *.node[*].veinsmobility.z 0
param *.node[*].veinsmobility.setHostSpeed false

scalar RSUExampleScenario.manager roiArea 0
scalar RSUExampleScenario.node[0].appl generatedWSMs 1
scalar RSUExampleScenario.node[0].appl receivedWSMs 32
scalar RSUExampleScenario.node[0].appl generatedBSMs 749
scalar RSUExampleScenario.node[0].appl receivedBSMs 20006
scalar RSUExampleScenario.node[0].appl generatedWSAs 0
scalar RSUExampleScenario.node[0].appl receivedWSAs 0
scalar RSUExampleScenario.node[0].nic.phy80211p busyTime 0.027926408544738
scalar RSUExampleScenario.node[0].nic.mac1609_4 ReceivedUnicastPackets 0
scalar RSUExampleScenario.node[0].nic.mac1609_4 ReceivedBroadcasts 20038
scalar RSUExampleScenario.node[0].nic.mac1609_4 SentPackets 750
scalar RSUExampleScenario.node[0].nic.mac1609_4 SentAcknowledgements 0
scalar RSUExampleScenario.node[0].nic.mac1609_4 RetriesExceeded 0
scalar RSUExampleScenario.node[0].nic.mac1609_4 SNIRLostPackets 35
scalar RSUExampleScenario.node[0].nic.mac1609_4 RXTXLostPackets 0
scalar RSUExampleScenario.node[0].nic.mac1609_4 TotalLostPackets 35
scalar RSUExampleScenario.node[0].nic.mac1609_4 DroppedPacketsInMac 0
scalar RSUExampleScenario.node[0].nic.mac1609_4 TooLittleTime 0
scalar RSUExampleScenario.node[0].nic.mac1609_4 TimesIntoBackoff 750
scalar RSUExampleScenario.node[0].nic.mac1609_4 SlotsBackoff 1074
scalar RSUExampleScenario.node[0].nic.mac1609_4 NumInternalContention 0
scalar RSUExampleScenario.node[0].nic.mac1609_4 totalBusyTime 2.167134
scalar RSUExampleScenario.node[0].nic.mac1609_4 retriesExceeded:count 0
attr source org_car2x_veins_modules_mac_sigRetriesExceeded
scalar RSUExampleScenario.node[0].nic.mac1609_4 sentAcks:count 0
attr source org_car2x_veins_modules_mac_sigSentAck
scalar RSUExampleScenario.node[0].nic.mac1609_4 sentPackets:count 750
attr source org_car2x_veins_modules_mac_sigSentPacket
scalar RSUExampleScenario.node[0].nic.mac1609_4 collisions:count 0
attr source org_car2x_veins_modules_mac_sigCollision
scalar RSUExampleScenario.node[0].nic.mac1609_4 channelBusy:timeavg 0.028933698264362
attr source org_car2x_veins_modules_mac_sigChannelBusy
scalar RSUExampleScenario.node[0].veinsmobility startTime 0.1
scalar RSUExampleScenario.node[0].veinsmobility totalTime 74.9
scalar RSUExampleScenario.node[0].veinsmobility stopTime 75
scalar RSUExampleScenario.node[0].veinsmobility minSpeed 0
scalar RSUExampleScenario.node[0].veinsmobility maxSpeed 11.163062379957
scalar RSUExampleScenario.node[0].veinsmobility totalDistance 530.88694415855
scalar RSUExampleScenario.node[0].veinsmobility totalCO2Emission 155.34371198065
scalar RSUExampleScenario.node[1].appl generatedWSMs 1
scalar RSUExampleScenario.node[1].appl receivedWSMs 32
scalar RSUExampleScenario.node[1].appl generatedBSMs 749
scalar RSUExampleScenario.node[1].appl receivedBSMs 19974
scalar RSUExampleScenario.node[1].appl generatedWSAs 0
scalar RSUExampleScenario.node[1].appl receivedWSAs 0
scalar RSUExampleScenario.node[1].nic.phy80211p busyTime 0.027926408544738
scalar RSUExampleScenario.node[1].nic.mac1609_4 ReceivedUnicastPackets 0
scalar RSUExampleScenario.node[1].nic.mac1609_4 ReceivedBroadcasts 20006
scalar RSUExampleScenario.node[1].nic.mac1609_4 SentPackets 750
scalar RSUExampleScenario.node[1].nic.mac1609_4 SentAcknowledgements 0
scalar RSUExampleScenario.node[1].nic.mac1609_4 RetriesExceeded 0
scalar RSUExampleScenario.node[1].nic.mac1609_4 SNIRLostPackets 67
scalar RSUExampleScenario.node[1].nic.mac1609_4 RXTXLostPackets 0
scalar RSUExampleScenario.node[1].nic.mac1609_4 TotalLostPackets 67
scalar RSUExampleScenario.node[1].nic.mac1609_4 DroppedPacketsInMac 0
scalar RSUExampleScenario.node[1].nic.mac1609_4 TooLittleTime 0
scalar RSUExampleScenario.node[1].nic.mac1609_4 TimesIntoBackoff 750
scalar RSUExampleScenario.node[1].nic.mac1609_4 SlotsBackoff 1099
scalar RSUExampleScenario.node[1].nic.mac1609_4 NumInternalContention 0
scalar RSUExampleScenario.node[1].nic.mac1609_4 totalBusyTime 2.167134
scalar RSUExampleScenario.node[1].nic.mac1609_4 retriesExceeded:count 0
attr source org_car2x_veins_modules_mac_sigRetriesExceeded
scalar RSUExampleScenario.node[1].nic.mac1609_4 sentAcks:count 0
attr source org_car2x_veins_modules_mac_sigSentAck
scalar RSUExampleScenario.node[1].nic.mac1609_4 sentPackets:count 750
attr source org_car2x_veins_modules_mac_sigSentPacket
scalar RSUExampleScenario.node[1].nic.mac1609_4 collisions:count 0
attr source org_car2x_veins_modules_mac_sigCollision
scalar RSUExampleScenario.node[1].nic.mac1609_4 channelBusy:timeavg 0.028933698264362
attr source org_car2x_veins_modules_mac_sigChannelBusy
scalar RSUExampleScenario.node[1].veinsmobility startTime 0.1
scalar RSUExampleScenario.node[1].veinsmobility totalTime 74.9
scalar RSUExampleScenario.node[1].veinsmobility stopTime 75
scalar RSUExampleScenario.node[1].veinsmobility minSpeed 0
scalar RSUExampleScenario.node[1].veinsmobility maxSpeed 10.482089882601
scalar RSUExampleScenario.node[1].veinsmobility totalDistance 516.6847212567
scalar RSUExampleScenario.node[1].veinsmobility totalCO2Emission 152.03503840082
scalar RSUExampleScenario.node[2].appl generatedWSMs 1
scalar RSUExampleScenario.node[2].appl receivedWSMs 32
scalar RSUExampleScenario.node[2].appl generatedBSMs 739
scalar RSUExampleScenario.node[2].appl receivedBSMs 19965
scalar RSUExampleScenario.node[2].appl generatedWSAs 0
scalar RSUExampleScenario.node[2].appl receivedWSAs 0
scalar RSUExampleScenario.node[2].nic.phy80211p busyTime 0.028290230040607
scalar RSUExampleScenario.node[2].nic.mac1609_4 ReceivedUnicastPackets 0
scalar RSUExampleScenario.node[2].nic.mac1609_4 ReceivedBroadcasts 19997
scalar RSUExampleScenario.node[2].nic.mac1609_4 SentPackets 740
scalar RSUExampleScenario.node[2].nic.mac1609_4 SentAcknowledgements 0
scalar RSUExampleScenario.node[2].nic.mac1609_4 RetriesExceeded 0
scalar RSUExampleScenario.node[2].nic.mac1609_4 SNIRLostPackets 66
scalar RSUExampleScenario.node[2].nic.mac1609_4 RXTXLostPackets 0
scalar RSUExampleScenario.node[2].nic.mac1609_4 TotalLostPackets 66
scalar RSUExampleScenario.node[2].nic.mac1609_4 DroppedPacketsInMac 0
scalar RSUExampleScenario.node[2].nic.mac1609_4 TooLittleTime 0
scalar RSUExampleScenario.node[2].nic.mac1609_4 TimesIntoBackoff 740
scalar RSUExampleScenario.node[2].nic.mac1609_4 SlotsBackoff 1041
scalar RSUExampleScenario.node[2].nic.mac1609_4 NumInternalContention 0
scalar RSUExampleScenario.node[2].nic.mac1609_4 totalBusyTime 2.165044
scalar RSUExampleScenario.node[2].nic.mac1609_4 retriesExceeded:count 0
attr source org_car2x_veins_modules_mac_sigRetriesExceeded
scalar RSUExampleScenario.node[2].nic.mac1609_4 sentAcks:count 0
attr source org_car2x_veins_modules_mac_sigSentAck
scalar RSUExampleScenario.node[2].nic.mac1609_4 sentPackets:count 740
attr source org_car2x_veins_modules_mac_sigSentPacket
scalar RSUExampleScenario.node[2].nic.mac1609_4 collisions:count 0
attr source org_car2x_veins_modules_mac_sigCollision
scalar RSUExampleScenario.node[2].nic.mac1609_4 channelBusy:timeavg 0.029296941813271
attr source org_car2x_veins_modules_mac_sigChannelBusy
scalar RSUExampleScenario.node[2].veinsmobility startTime 1.1
scalar RSUExampleScenario.node[2].veinsmobility totalTime 73.9
scalar RSUExampleScenario.node[2].veinsmobility stopTime 75
scalar RSUExampleScenario.node[2].veinsmobility minSpeed 0
scalar RSUExampleScenario.node[2].veinsmobility maxSpeed 10.29919979205
scalar RSUExampleScenario.node[2].veinsmobility totalDistance 492.67212742988
scalar RSUExampleScenario.node[2].veinsmobility totalCO2Emission 156.41820741784
scalar RSUExampleScenario.node[3].appl generatedWSMs 1
scalar RSUExampleScenario.node[3].appl receivedWSMs 32
scalar RSUExampleScenario.node[3].appl generatedBSMs 729
scalar RSUExampleScenario.node[3].appl receivedBSMs 19945
scalar RSUExampleScenario.node[3].appl generatedWSAs 0
scalar RSUExampleScenario.node[3].appl receivedWSAs 0
scalar RSUExampleScenario.node[3].nic.phy80211p busyTime 0.028649766803852
scalar RSUExampleScenario.node[3].nic.mac1609_4 ReceivedUnicastPackets 0
scalar RSUExampleScenario.node[3].nic.mac1609_4 ReceivedBroadcasts 19977
scalar RSUExampleScenario.node[3].nic.mac1609_4 SentPackets 730
scalar RSUExampleScenario.node[3].nic.mac1609_4 SentAcknowledgements 0
scalar RSUExampleScenario.node[3].nic.mac1609_4 RetriesExceeded 0
scalar RSUExampleScenario.node[3].nic.mac1609_4 SNIRLostPackets 66
scalar RSUExampleScenario.node[3].nic.mac1609_4 RXTXLostPackets 0
scalar RSUExampleScenario.node[3].nic.mac1609_4 TotalLostPackets 66
scalar RSUExampleScenario.node[3].nic.mac1609_4 DroppedPacketsInMac 0
scalar RSUExampleScenario.node[3].nic.mac1609_4 TooLittleTime 0
scalar RSUExampleScenario.node[3].nic.mac1609_4 TimesIntoBackoff 731
scalar RSUExampleScenario.node[3].nic.mac1609_4 SlotsBackoff 1179
scalar RSUExampleScenario.node[3].nic.mac1609_4 NumInternalContention 0
scalar RSUExampleScenario.node[3].nic.mac1609_4 totalBusyTime 2.161914
scalar RSUExampleScenario.node[3].nic.mac1609_4 retriesExceeded:count 0
attr source org_car2x_veins_modules_mac_sigRetriesExceeded
scalar RSUExampleScenario.node[3].nic.mac1609_4 sentAcks:count 0
attr source org_car2x_veins_modules_mac_sigSentAck
scalar RSUExampleScenario.node[3].nic.mac1609_4 sentPackets:count 730
attr source org_car2x_veins_modules_mac_sigSentPacket
scalar RSUExampleScenario.node[3].nic.mac1609_4 collisions:count 0
attr source org_car2x_veins_modules_mac_sigCollision
scalar RSUExampleScenario.node[3].nic.mac1609_4 channelBusy:timeavg 0.029655884773673
attr source org_car2x_veins_modules_mac_sigChannelBusy
scalar RSUExampleScenario.node[3].veinsmobility startTime 2.1
scalar RSUExampleScenario.node[3].veinsmobility totalTime 72.9
scalar RSUExampleScenario.node[3].veinsmobility stopTime 75
scalar RSUExampleScenario.node[3].veinsmobility minSpeed 0
scalar RSUExampleScenario.node[3].veinsmobility maxSpeed 10.150584690015
scalar RSUExampleScenario.node[3].veinsmobility totalDistance 470.86925506109
scalar RSUExampleScenario.node[3].veinsmobility totalCO2Emission 150.01926478834
scalar RSUExampleScenario.node[4].appl generatedWSMs 1
scalar RSUExampleScenario.node[4].appl receivedWSMs 32
scalar RSUExampleScenario.node[4].appl generatedBSMs 717
scalar RSUExampleScenario.node[4].appl receivedBSMs 19910
scalar RSUExampleScenario.node[4].appl generatedWSAs 0
scalar RSUExampleScenario.node[4].appl receivedWSAs 0
scalar RSUExampleScenario.node[4].nic.phy80211p busyTime 0.029077043235716
scalar RSUExampleScenario.node[4].nic.mac1609_4 ReceivedUnicastPackets 0
scalar RSUExampleScenario.node[4].nic.mac1609_4 ReceivedBroadcasts 19942
scalar RSUExampleScenario.node[4].nic.mac1609_4 SentPackets 718
scalar RSUExampleScenario.node[4].nic.mac1609_4 SentAcknowledgements 0
scalar RSUExampleScenario.node[4].nic.mac1609_4 RetriesExceeded 0
scalar RSUExampleScenario.node[4].nic.mac1609_4 SNIRLostPackets 65
scalar RSUExampleScenario.node[4].nic.mac1609_4 RXTXLostPackets 0
scalar RSUExampleScenario.node[4].nic.mac1609_4 TotalLostPackets 65
scalar RSUExampleScenario.node[4].nic.mac1609_4 DroppedPacketsInMac 0
scalar RSUExampleScenario.node[4].nic.mac1609_4 TooLittleTime 0
scalar RSUExampleScenario.node[4].nic.mac1609_4 TimesIntoBackoff 718
scalar RSUExampleScenario.node[4].nic.mac1609_4 SlotsBackoff 1074
scalar RSUExampleScenario.node[4].nic.mac1609_4 NumInternalContention 0
scalar RSUExampleScenario.node[4].nic.mac1609_4 totalBusyTime 2.15691
scalar RSUExampleScenario.node[4].nic.mac1609_4 retriesExceeded:count 0
attr source org_car2x_veins_modules_mac_sigRetriesExceeded
scalar RSUExampleScenario.node[4].nic.mac1609_4 sentAcks:count 0
attr source org_car2x_veins_modules_mac_sigSentAck
scalar RSUExampleScenario.node[4].nic.mac1609_4 sentPackets:count 718
attr source org_car2x_veins_modules_mac_sigSentPacket
scalar RSUExampleScenario.node[4].nic.mac1609_4 collisions:count 0
attr source org_car2x_veins_modules_mac_sigCollision
scalar RSUExampleScenario.node[4].nic.mac1609_4 channelBusy:timeavg 0.030082426778253
attr source org_car2x_veins_modules_mac_sigChannelBusy
scalar RSUExampleScenario.node[4].veinsmobility startTime 3.3
scalar RSUExampleScenario.node[4].veinsmobility totalTime 71.7
scalar RSUExampleScenario.node[4].veinsmobility stopTime 75
scalar RSUExampleScenario.node[4].veinsmobility minSpeed 0
scalar RSUExampleScenario.node[4].veinsmobility maxSpeed 8.8305794465649
scalar RSUExampleScenario.node[4].veinsmobility totalDistance 424.61717359878
scalar RSUExampleScenario.node[4].veinsmobility totalCO2Emission 141.84573436089
scalar RSUExampleScenario.node[5].appl generatedWSMs 1
scalar RSUExampleScenario.node[5].appl receivedWSMs 32
scalar RSUExampleScenario.node[5].appl generatedBSMs 702
scalar RSUExampleScenario.node[5].appl receivedBSMs 19850
scalar RSUExampleScenario.node[5].appl generatedWSAs 0
scalar RSUExampleScenario.node[5].appl receivedWSAs 0
scalar RSUExampleScenario.node[5].nic.phy80211p busyTime 0.029609458689471
scalar RSUExampleScenario.node[5].nic.mac1609_4 ReceivedUnicastPackets 0
scalar RSUExampleScenario.node[5].nic.mac1609_4 ReceivedBroadcasts 19882
scalar RSUExampleScenario.node[5].nic.mac1609_4 SentPackets 703
scalar RSUExampleScenario.node[5].nic.mac1609_4 SentAcknowledgements 0
scalar RSUExampleScenario.node[5].nic.mac1609_4 RetriesExceeded 0
scalar RSUExampleScenario.node[5].nic.mac1609_4 SNIRLostPackets 65
scalar RSUExampleScenario.node[5].nic.mac1609_4 RXTXLostPackets 0
scalar RSUExampleScenario.node[5].nic.mac1609_4 TotalLostPackets 65
scalar RSUExampleScenario.node[5].nic.mac1609_4 DroppedPacketsInMac 0
scalar RSUExampleScenario.node[5].nic.mac1609_4 TooLittleTime 0
scalar RSUExampleScenario.node[5].nic.mac1609_4 TimesIntoBackoff 704
scalar RSUExampleScenario.node[5].nic.mac1609_4 SlotsBackoff 1028
scalar RSUExampleScenario.node[5].nic.mac1609_4 NumInternalContention 0
scalar RSUExampleScenario.node[5].nic.mac1609_4 totalBusyTime 2.149095
scalar RSUExampleScenario.node[5].nic.mac1609_4 retriesExceeded:count 0
attr source org_car2x_veins_modules_mac_sigRetriesExceeded
scalar RSUExampleScenario.node[5].nic.mac1609_4 sentAcks:count 0
attr source org_car2x_veins_modules_mac_sigSentAck
scalar RSUExampleScenario.node[5].nic.mac1609_4 sentPackets:count 703
attr source org_car2x_veins_modules_mac_sigSentPacket
scalar RSUExampleScenario.node[5].nic.mac1609_4 collisions:count 0
attr source org_car2x_veins_modules_mac_sigCollision
scalar RSUExampleScenario.node[5].nic.mac1609_4 channelBusy:timeavg 0.0306138888889
attr source org_car2x_veins_modules_mac_sigChannelBusy
scalar RSUExampleScenario.node[5].veinsmobility startTime 4.8
scalar RSUExampleScenario.node[5].veinsmobility totalTime 70.2
scalar RSUExampleScenario.node[5].veinsmobility stopTime 75
scalar RSUExampleScenario.node[5].veinsmobility minSpeed 2.4440247688593e-05
scalar RSUExampleScenario.node[5].veinsmobility maxSpeed 9.2310619609622
scalar RSUExampleScenario.node[5].veinsmobility totalDistance 407.97547207082
scalar RSUExampleScenario.node[5].veinsmobility totalCO2Emission 144.96872067112
scalar RSUExampleScenario.node[6].appl generatedWSMs 1
scalar RSUExampleScenario.node[6].appl receivedWSMs 32
scalar RSUExampleScenario.node[6].appl generatedBSMs 699
scalar RSUExampleScenario.node[6].appl receivedBSMs 19867
scalar RSUExampleScenario.node[6].appl generatedWSAs 0
scalar RSUExampleScenario.node[6].appl receivedWSAs 0
scalar RSUExampleScenario.node[6].nic.phy80211p busyTime 0.029714220314748
scalar RSUExampleScenario.node[6].nic.mac1609_4 ReceivedUnicastPackets 0
scalar RSUExampleScenario.node[6].nic.mac1609_4 ReceivedBroadcasts 19899
scalar RSUExampleScenario.node[6].nic.mac1609_4 SentPackets 700
scalar RSUExampleScenario.node[6].nic.mac1609_4 SentAcknowledgements 0
scalar RSUExampleScenario.node[6].nic.mac1609_4 RetriesExceeded 0
scalar RSUExampleScenario.node[6].nic.mac1609_4 SNIRLostPackets 33
scalar RSUExampleScenario.node[6].nic.mac1609_4 RXTXLostPackets 0
scalar RSUExampleScenario.node[6].nic.mac1609_4 TotalLostPackets 33
scalar RSUExampleScenario.node[6].nic.mac1609_4 DroppedPacketsInMac 0
scalar RSUExampleScenario.node[6].nic.mac1609_4 TooLittleTime 0
scalar RSUExampleScenario.node[6].nic.mac1609_4 TimesIntoBackoff 701
scalar RSUExampleScenario.node[6].nic.mac1609_4 SlotsBackoff 1066
scalar RSUExampleScenario.node[6].nic.mac1609_4 NumInternalContention 0
scalar RSUExampleScenario.node[6].nic.mac1609_4 totalBusyTime 2.14722
scalar RSUExampleScenario.node[6].nic.mac1609_4 retriesExceeded:count 0
attr source org_car2x_veins_modules_mac_sigRetriesExceeded
scalar RSUExampleScenario.node[6].nic.mac1609_4 sentAcks:count 0
attr source org_car2x_veins_modules_mac_sigSentAck
scalar RSUExampleScenario.node[6].nic.mac1609_4 sentPackets:count 700
attr source org_car2x_veins_modules_mac_sigSentPacket
scalar RSUExampleScenario.node[6].nic.mac1609_4 collisions:count 0
attr source org_car2x_veins_modules_mac_sigCollision
scalar RSUExampleScenario.node[6].nic.mac1609_4 channelBusy:timeavg 0.030718454935633
attr source org_car2x_veins_modules_mac_sigChannelBusy
scalar RSUExampleScenario.node[6].veinsmobility startTime 5.1
scalar RSUExampleScenario.node[6].veinsmobility totalTime 69.9
scalar RSUExampleScenario.node[6].veinsmobility stopTime 75
scalar RSUExampleScenario.node[6].veinsmobility minSpeed 0
scalar RSUExampleScenario.node[6].veinsmobility maxSpeed 9.453309242857
scalar RSUExampleScenario.node[6].veinsmobility totalDistance 474.00162160944
scalar RSUExampleScenario.node[6].veinsmobility totalCO2Emission 141.72213244421
scalar RSUExampleScenario.node[7].appl generatedWSMs 1
scalar RSUExampleScenario.node[7].appl receivedWSMs 32
scalar RSUExampleScenario.node[7].appl generatedBSMs 684
scalar RSUExampleScenario.node[7].appl receivedBSMs 19748
scalar RSUExampleScenario.node[7].appl generatedWSAs 0
scalar RSUExampleScenario.node[7].appl receivedWSAs 0
scalar RSUExampleScenario.node[7].nic.phy80211p busyTime 0.030229005847966
scalar RSUExampleScenario.node[7].nic.mac1609_4 ReceivedUnicastPackets 0
scalar RSUExampleScenario.node[7].nic.mac1609_4 ReceivedBroadcasts 19780
scalar RSUExampleScenario.node[7].nic.mac1609_4 SentPackets 685
scalar RSUExampleScenario.node[7].nic.mac1609_4 SentAcknowledgements 0
scalar RSUExampleScenario.node[7].nic.mac1609_4 RetriesExceeded 0
scalar RSUExampleScenario.node[7].nic.mac1609_4 SNIRLostPackets 62
scalar RSUExampleScenario.node[7].nic.mac1609_4 RXTXLostPackets 0
scalar RSUExampleScenario.node[7].nic.mac1609_4 TotalLostPackets 62
scalar RSUExampleScenario.node[7].nic.mac1609_4 DroppedPacketsInMac 0
scalar RSUExampleScenario.node[7].nic.mac1609_4 TooLittleTime 0
scalar RSUExampleScenario.node[7].nic.mac1609_4 TimesIntoBackoff 685
scalar RSUExampleScenario.node[7].nic.mac1609_4 SlotsBackoff 1033
scalar RSUExampleScenario.node[7].nic.mac1609_4 NumInternalContention 0
scalar RSUExampleScenario.node[7].nic.mac1609_4 totalBusyTime 2.136285
scalar RSUExampleScenario.node[7].nic.mac1609_4 retriesExceeded:count 0
attr source org_car2x_veins_modules_mac_sigRetriesExceeded
scalar RSUExampleScenario.node[7].nic.mac1609_4 sentAcks:count 0
attr source org_car2x_veins_modules_mac_sigSentAck
scalar RSUExampleScenario.node[7].nic.mac1609_4 sentPackets:count 685
attr source org_car2x_veins_modules_mac_sigSentPacket
scalar RSUExampleScenario.node[7].nic.mac1609_4 collisions:count 0
attr source org_car2x_veins_modules_mac_sigCollision
scalar RSUExampleScenario.node[7].nic.mac1609_4 channelBusy:timeavg 0.031232236842117
attr source org_car2x_veins_modules_mac_sigChannelBusy
scalar RSUExampleScenario.node[7].veinsmobility startTime 6.6
scalar RSUExampleScenario.node[7].veinsmobility totalTime 68.4
scalar RSUExampleScenario.node[7].veinsmobility stopTime 75
scalar RSUExampleScenario.node[7].veinsmobility minSpeed 0.00024692770925735
scalar RSUExampleScenario.node[7].veinsmobility maxSpeed 7.6436784102249
scalar RSUExampleScenario.node[7].veinsmobility totalDistance 368.90637100527
scalar RSUExampleScenario.node[7].veinsmobility totalCO2Emission 131.04233093125
scalar RSUExampleScenario.node[8].appl generatedWSMs 1
scalar RSUExampleScenario.node[8].appl receivedWSMs 32
scalar RSUExampleScenario.node[8].appl generatedBSMs 664
scalar RSUExampleScenario.node[8].appl receivedBSMs 19610
scalar RSUExampleScenario.node[8].appl generatedWSAs 0
scalar RSUExampleScenario.node[8].appl receivedWSAs 0
scalar RSUExampleScenario.node[8].nic.phy80211p busyTime 0.030920240963869
scalar RSUExampleScenario.node[8].nic.mac1609_4 ReceivedUnicastPackets 0
scalar RSUExampleScenario.node[8].nic.mac1609_4 ReceivedBroadcasts 19642
scalar RSUExampleScenario.node[8].nic.mac1609_4 SentPackets 665
scalar RSUExampleScenario.node[8].nic.mac1609_4 SentAcknowledgements 0
scalar RSUExampleScenario.node[8].nic.mac1609_4 RetriesExceeded 0
scalar RSUExampleScenario.node[8].nic.mac1609_4 SNIRLostPackets 60
scalar RSUExampleScenario.node[8].nic.mac1609_4 RXTXLostPackets 0
scalar RSUExampleScenario.node[8].nic.mac1609_4 TotalLostPackets 60
scalar RSUExampleScenario.node[8].nic.mac1609_4 DroppedPacketsInMac 0
scalar RSUExampleScenario.node[8].nic.mac1609_4 TooLittleTime 0
scalar RSUExampleScenario.node[8].nic.mac1609_4 TimesIntoBackoff 665
scalar RSUExampleScenario.node[8].nic.mac1609_4 SlotsBackoff 1005
scalar RSUExampleScenario.node[8].nic.mac1609_4 NumInternalContention 0
scalar RSUExampleScenario.node[8].nic.mac1609_4 totalBusyTime 2.119625
scalar RSUExampleScenario.node[8].nic.mac1609_4 retriesExceeded:count 0
attr source org_car2x_veins_modules_mac_sigRetriesExceeded
scalar RSUExampleScenario.node[8].nic.mac1609_4 sentAcks:count 0
attr source org_car2x_veins_modules_mac_sigSentAck
scalar RSUExampleScenario.node[8].nic.mac1609_4 sentPackets:count 665
attr source org_car2x_veins_modules_mac_sigSentPacket
scalar RSUExampleScenario.node[8].nic.mac1609_4 collisions:count 0
attr source org_car2x_veins_modules_mac_sigCollision
scalar RSUExampleScenario.node[8].nic.mac1609_4 channelBusy:timeavg 0.031922063253024
attr source org_car2x_veins_modules_mac_sigChannelBusy
scalar RSUExampleScenario.node[8].veinsmobility startTime 8.6
scalar RSUExampleScenario.node[8].veinsmobility totalTime 66.4
scalar RSUExampleScenario.node[8].veinsmobility stopTime 75
scalar RSUExampleScenario.node[8].veinsmobility minSpeed 0.0013684811414117
scalar RSUExampleScenario.node[8].veinsmobility maxSpeed 7.7990321995335
scalar RSUExampleScenario.node[8].veinsmobility totalDistance 353.4968306905
scalar RSUExampleScenario.node[8].veinsmobility totalCO2Emission 128.34042343444
scalar RSUExampleScenario.node[9].appl generatedWSMs 1
scalar RSUExampleScenario.node[9].appl receivedWSMs 32
scalar RSUExampleScenario.node[9].appl generatedBSMs 649
scalar RSUExampleScenario.node[9].appl receivedBSMs 19517
scalar RSUExampleScenario.node[9].appl generatedWSAs 0
scalar RSUExampleScenario.node[9].appl receivedWSAs 0
scalar RSUExampleScenario.node[9].nic.phy80211p busyTime 0.031442588597857
scalar RSUExampleScenario.node[9].nic.mac1609_4 ReceivedUnicastPackets 0
scalar RSUExampleScenario.node[9].nic.mac1609_4 ReceivedBroadcasts 19549
scalar RSUExampleScenario.node[9].nic.mac1609_4 SentPackets 650
scalar RSUExampleScenario.node[9].nic.mac1609_4 SentAcknowledgements 0
scalar RSUExampleScenario.node[9].nic.mac1609_4 RetriesExceeded 0
scalar RSUExampleScenario.node[9].nic.mac1609_4 SNIRLostPackets 33
scalar RSUExampleScenario.node[9].nic.mac1609_4 RXTXLostPackets 0
scalar RSUExampleScenario.node[9].nic.mac1609_4 TotalLostPackets 33
scalar RSUExampleScenario.node[9].nic.mac1609_4 DroppedPacketsInMac 0
scalar RSUExampleScenario.node[9].nic.mac1609_4 TooLittleTime 0
scalar RSUExampleScenario.node[9].nic.mac1609_4 TimesIntoBackoff 651
scalar RSUExampleScenario.node[9].nic.mac1609_4 SlotsBackoff 993
scalar RSUExampleScenario.node[9].nic.mac1609_4 NumInternalContention 0
scalar RSUExampleScenario.node[9].nic.mac1609_4 totalBusyTime 2.10557
scalar RSUExampleScenario.node[9].nic.mac1609_4 retriesExceeded:count 0
attr source org_car2x_veins_modules_mac_sigRetriesExceeded
scalar RSUExampleScenario.node[9].nic.mac1609_4 sentAcks:count 0
attr source org_car2x_veins_modules_mac_sigSentAck
scalar RSUExampleScenario.node[9].nic.mac1609_4 sentPackets:count 650
attr source org_car2x_veins_modules_mac_sigSentPacket
scalar RSUExampleScenario.node[9].nic.mac1609_4 collisions:count 0
attr source org_car2x_veins_modules_mac_sigCollision
scalar RSUExampleScenario.node[9].nic.mac1609_4 channelBusy:timeavg 0.032443297380598
attr source org_car2x_veins_modules_mac_sigChannelBusy
scalar RSUExampleScenario.node[9].veinsmobility startTime 10.1
scalar RSUExampleScenario.node[9].veinsmobility totalTime 64.9
scalar RSUExampleScenario.node[9].veinsmobility stopTime 75
scalar RSUExampleScenario.node[9].veinsmobility minSpeed 0.00017897489152816
scalar RSUExampleScenario.node[9].veinsmobility maxSpeed 9.318143471229
scalar RSUExampleScenario.node[9].veinsmobility totalDistance 452.31751445165
scalar RSUExampleScenario.node[9].veinsmobility totalCO2Emission 133.05501803392
scalar RSUExampleScenario.node[10].appl generatedWSMs 1
scalar RSUExampleScenario.node[10].appl receivedWSMs 32
scalar RSUExampleScenario.node[10].appl generatedBSMs 645
scalar RSUExampleScenario.node[10].appl receivedBSMs 19456
scalar RSUExampleScenario.node[10].appl generatedWSAs 0
scalar RSUExampleScenario.node[10].appl receivedWSAs 0
scalar RSUExampleScenario.node[10].nic.phy80211p busyTime 0.031579534883735
scalar RSUExampleScenario.node[10].nic.mac1609_4 ReceivedUnicastPackets 0
scalar RSUExampleScenario.node[10].nic.mac1609_4 ReceivedBroadcasts 19488
scalar RSUExampleScenario.node[10].nic.mac1609_4 SentPackets 646
scalar RSUExampleScenario.node[10].nic.mac1609_4 SentAcknowledgements 0
scalar RSUExampleScenario.node[10].nic.mac1609_4 RetriesExceeded 0
scalar RSUExampleScenario.node[10].nic.mac1609_4 SNIRLostPackets 58
scalar RSUExampleScenario.node[10].nic.mac1609_4 RXTXLostPackets 0
scalar RSUExampleScenario.node[10].nic.mac1609_4 TotalLostPackets 58
scalar RSUExampleScenario.node[10].nic.mac1609_4 DroppedPacketsInMac 0
scalar RSUExampleScenario.node[10].nic.mac1609_4 TooLittleTime 0
scalar RSUExampleScenario.node[10].nic.mac1609_4 TimesIntoBackoff 646
scalar RSUExampleScenario.node[10].nic.mac1609_4 SlotsBackoff 953
scalar RSUExampleScenario.node[10].nic.mac1609_4 NumInternalContention 0
scalar RSUExampleScenario.node[10].nic.mac1609_4 totalBusyTime 2.101406
scalar RSUExampleScenario.node[10].nic.mac1609_4 retriesExceeded:count 0
attr source org_car2x_veins_modules_mac_sigRetriesExceeded
scalar RSUExampleScenario.node[10].nic.mac1609_4 sentAcks:count 0
attr source org_car2x_veins_modules_mac_sigSentAck
scalar RSUExampleScenario.node[10].nic.mac1609_4 sentPackets:count 646
attr source org_car2x_veins_modules_mac_sigSentPacket
scalar RSUExampleScenario.node[10].nic.mac1609_4 collisions:count 0
attr source org_car2x_veins_modules_mac_sigCollision
scalar RSUExampleScenario.node[10].nic.mac1609_4 channelBusy:timeavg 0.032579937984509
attr source org_car2x_veins_modules_mac_sigChannelBusy
scalar RSUExampleScenario.node[10].veinsmobility startTime 10.5
scalar RSUExampleScenario.node[10].veinsmobility totalTime 64.5
scalar RSUExampleScenario.node[10].veinsmobility stopTime 75
scalar RSUExampleScenario.node[10].veinsmobility minSpeed 0.004944778030179
scalar RSUExampleScenario.node[10].veinsmobility maxSpeed 7.8612348054333
scalar RSUExampleScenario.node[10].veinsmobility totalDistance 338.01853509135
scalar RSUExampleScenario.node[10].veinsmobility totalCO2Emission 125.32222029417
scalar RSUExampleScenario.node[11].appl generatedWSMs 1
scalar RSUExampleScenario.node[11].appl receivedWSMs 32
scalar RSUExampleScenario.node[11].appl generatedBSMs 626
scalar RSUExampleScenario.node[11].appl receivedBSMs 19268
scalar RSUExampleScenario.node[11].appl generatedWSAs 0
scalar RSUExampleScenario.node[11].appl receivedWSAs 0
scalar RSUExampleScenario.node[11].nic.phy80211p busyTime 0.032222364217267
scalar RSUExampleScenario.node[11].nic.mac1609_4 ReceivedUnicastPackets 0
scalar RSUExampleScenario.node[11].nic.mac1609_4 ReceivedBroadcasts 19300
scalar RSUExampleScenario.node[11].nic.mac1609_4 SentPackets 627
scalar RSUExampleScenario.node[11].nic.mac1609_4 SentAcknowledgements 0
scalar RSUExampleScenario.node[11].nic.mac1609_4 RetriesExceeded 0
scalar RSUExampleScenario.node[11].nic.mac1609_4 SNIRLostPackets 56
scalar RSUExampleScenario.node[11].nic.mac1609_4 RXTXLostPackets 0
scalar RSUExampleScenario.node[11].nic.mac1609_4 TotalLostPackets 56
scalar RSUExampleScenario.node[11].nic.mac1609_4 DroppedPacketsInMac 0
scalar RSUExampleScenario.node[11].nic.mac1609_4 TooLittleTime 0
scalar RSUExampleScenario.node[11].nic.mac1609_4 TimesIntoBackoff 627
scalar RSUExampleScenario.node[11].nic.mac1609_4 SlotsBackoff 988
scalar RSUExampleScenario.node[11].nic.mac1609_4 NumInternalContention 0
scalar RSUExampleScenario.node[11].nic.mac1609_4 totalBusyTime 2.079651
scalar RSUExampleScenario.node[11].nic.mac1609_4 retriesExceeded:count 0
attr source org_car2x_veins_modules_mac_sigRetriesExceeded
scalar RSUExampleScenario.node[11].nic.mac1609_4 sentAcks:count 0
attr source org_car2x_veins_modules_mac_sigSentAck
scalar RSUExampleScenario.node[11].nic.mac1609_4 sentPackets:count 627
attr source org_car2x_veins_modules_mac_sigSentPacket
scalar RSUExampleScenario.node[11].nic.mac1609_4 collisions:count 0
attr source org_car2x_veins_modules_mac_sigCollision
scalar RSUExampleScenario.node[11].nic.mac1609_4 channelBusy:timeavg 0.033221261980844
attr source org_car2x_veins_modules_mac_sigChannelBusy
scalar RSUExampleScenario.node[11].veinsmobility startTime 12.4
scalar RSUExampleScenario.node[11].veinsmobility totalTime 62.6
scalar RSUExampleScenario.node[11].veinsmobility stopTime 75
scalar RSUExampleScenario.node[11].veinsmobility minSpeed 0.013038251286648
scalar RSUExampleScenario.node[11].veinsmobility maxSpeed 7.9446130962122
scalar RSUExampleScenario.node[11].veinsmobility totalDistance 322.48324641667
scalar RSUExampleScenario.node[11].veinsmobility totalCO2Emission 123.53649603596
scalar RSUExampleScenario.node[12].appl generatedWSMs 1
scalar RSUExampleScenario.node[12].appl receivedWSMs 32
scalar RSUExampleScenario.node[12].appl generatedBSMs 607
scalar RSUExampleScenario.node[12].appl receivedBSMs 19063
scalar RSUExampleScenario.node[12].appl generatedWSAs 0
scalar RSUExampleScenario.node[12].appl receivedWSAs 0
scalar RSUExampleScenario.node[12].nic.phy80211p busyTime 0.032872883031317
scalar RSUExampleScenario.node[12].nic.mac1609_4 ReceivedUnicastPackets 0
scalar RSUExampleScenario.node[12].nic.mac1609_4 ReceivedBroadcasts 19095
scalar RSUExampleScenario.node[12].nic.mac1609_4 SentPackets 608
scalar RSUExampleScenario.node[12].nic.mac1609_4 SentAcknowledgements 0
scalar RSUExampleScenario.node[12].nic.mac1609_4 RetriesExceeded 0
scalar RSUExampleScenario.node[12].nic.mac1609_4 SNIRLostPackets 52
scalar RSUExampleScenario.node[12].nic.mac1609_4 RXTXLostPackets 0
scalar RSUExampleScenario.node[12].nic.mac1609_4 TotalLostPackets 52
scalar RSUExampleScenario.node[12].nic.mac1609_4 DroppedPacketsInMac 0
scalar RSUExampleScenario.node[12].nic.mac1609_4 TooLittleTime 0
scalar RSUExampleScenario.node[12].nic.mac1609_4 TimesIntoBackoff 608
scalar RSUExampleScenario.node[12].nic.mac1609_4 SlotsBackoff 924
scalar RSUExampleScenario.node[12].nic.mac1609_4 NumInternalContention 0
scalar RSUExampleScenario.node[12].nic.mac1609_4 totalBusyTime 2.05592
scalar RSUExampleScenario.node[12].nic.mac1609_4 retriesExceeded:count 0
attr source org_car2x_veins_modules_mac_sigRetriesExceeded
scalar RSUExampleScenario.node[12].nic.mac1609_4 sentAcks:count 0
attr source org_car2x_veins_modules_mac_sigSentAck
scalar RSUExampleScenario.node[12].nic.mac1609_4 sentPackets:count 608
attr source org_car2x_veins_modules_mac_sigSentPacket
scalar RSUExampleScenario.node[12].nic.mac1609_4 collisions:count 0
attr source org_car2x_veins_modules_mac_sigCollision
scalar RSUExampleScenario.node[12].nic.mac1609_4 channelBusy:timeavg 0.033870181219125
attr source org_car2x_veins_modules_mac_sigChannelBusy
scalar RSUExampleScenario.node[12].veinsmobility startTime 14.3
scalar RSUExampleScenario.node[12].veinsmobility totalTime 60.7
scalar RSUExampleScenario.node[12].veinsmobility stopTime 75
scalar RSUExampleScenario.node[12].veinsmobility minSpeed 0.02748209680199
scalar RSUExampleScenario.node[12].veinsmobility maxSpeed 8.1444417353205
scalar RSUExampleScenario.node[12].veinsmobility totalDistance 306.88816244471
scalar RSUExampleScenario.node[12].veinsmobility totalCO2Emission 115.64133860239
scalar RSUExampleScenario.node[13].appl generatedWSMs 1
scalar RSUExampleScenario.node[13].appl receivedWSMs 32
scalar RSUExampleScenario.node[13].appl generatedBSMs 599
scalar RSUExampleScenario.node[13].appl receivedBSMs 18986
scalar RSUExampleScenario.node[13].appl generatedWSAs 0
scalar RSUExampleScenario.node[13].appl receivedWSAs 0
scalar RSUExampleScenario.node[13].nic.phy80211p busyTime 0.033145242070132
scalar RSUExampleScenario.node[13].nic.mac1609_4 ReceivedUnicastPackets 0
scalar RSUExampleScenario.node[13].nic.mac1609_4 ReceivedBroadcasts 19018
scalar RSUExampleScenario.node[13].nic.mac1609_4 SentPackets 600
scalar RSUExampleScenario.node[13].nic.mac1609_4 SentAcknowledgements 0
scalar RSUExampleScenario.node[13].nic.mac1609_4 RetriesExceeded 0
scalar RSUExampleScenario.node[13].nic.mac1609_4 SNIRLostPackets 33
scalar RSUExampleScenario.node[13].nic.mac1609_4 RXTXLostPackets 0
scalar RSUExampleScenario.node[13].nic.mac1609_4 TotalLostPackets 33
scalar RSUExampleScenario.node[13].nic.mac1609_4 DroppedPacketsInMac 0
scalar RSUExampleScenario.node[13].nic.mac1609_4 TooLittleTime 0
scalar RSUExampleScenario.node[13].nic.mac1609_4 TimesIntoBackoff 600
scalar RSUExampleScenario.node[13].nic.mac1609_4 SlotsBackoff 892
scalar RSUExampleScenario.node[13].nic.mac1609_4 NumInternalContention 0
scalar RSUExampleScenario.node[13].nic.mac1609_4 totalBusyTime 2.045096
scalar RSUExampleScenario.node[13].nic.mac1609_4 retriesExceeded:count 0
attr source org_car2x_veins_modules_mac_sigRetriesExceeded
scalar RSUExampleScenario.node[13].nic.mac1609_4 sentAcks:count 0
attr source org_car2x_veins_modules_mac_sigSentAck
scalar RSUExampleScenario.node[13].nic.mac1609_4 sentPackets:count 600
attr source org_car2x_veins_modules_mac_sigSentPacket
scalar RSUExampleScenario.node[13].nic.mac1609_4 collisions:count 0
attr source org_car2x_veins_modules_mac_sigCollision
scalar RSUExampleScenario.node[13].nic.mac1609_4 channelBusy:timeavg 0.034141836394005
attr source org_car2x_veins_modules_mac_sigChannelBusy
scalar RSUExampleScenario.node[13].veinsmobility startTime 15.1
scalar RSUExampleScenario.node[13].veinsmobility totalTime 59.9
scalar RSUExampleScenario.node[13].veinsmobility stopTime 75
scalar RSUExampleScenario.node[13].veinsmobility minSpeed 0.0024338760345234
scalar RSUExampleScenario.node[13].veinsmobility maxSpeed 11.074958723764
scalar RSUExampleScenario.node[13].veinsmobility totalDistance 435.19003550631
scalar RSUExampleScenario.node[13].veinsmobility totalCO2Emission 129.42659175102
scalar RSUExampleScenario.node[14].appl generatedWSMs 1
scalar RSUExampleScenario.node[14].appl receivedWSMs 32
scalar RSUExampleScenario.node[14].appl generatedBSMs 587
scalar RSUExampleScenario.node[14].appl receivedBSMs 18813
scalar RSUExampleScenario.node[14].appl generatedWSAs 0
scalar RSUExampleScenario.node[14].appl receivedWSAs 0
scalar RSUExampleScenario.node[14].nic.phy80211p busyTime 0.033546439523014
scalar RSUExampleScenario.node[14].nic.mac1609_4 ReceivedUnicastPackets 0
scalar RSUExampleScenario.node[14].nic.mac1609_4 ReceivedBroadcasts 18845
scalar RSUExampleScenario.node[14].nic.mac1609_4 SentPackets 588
scalar RSUExampleScenario.node[14].nic.mac1609_4 SentAcknowledgements 0
scalar RSUExampleScenario.node[14].nic.mac1609_4 RetriesExceeded 0
scalar RSUExampleScenario.node[14].nic.mac1609_4 SNIRLostPackets 50
scalar RSUExampleScenario.node[14].nic.mac1609_4 RXTXLostPackets 0
scalar RSUExampleScenario.node[14].nic.mac1609_4 TotalLostPackets 50
scalar RSUExampleScenario.node[14].nic.mac1609_4 DroppedPacketsInMac 0
scalar RSUExampleScenario.node[14].nic.mac1609_4 TooLittleTime 0
scalar RSUExampleScenario.node[14].nic.mac1609_4 TimesIntoBackoff 588
scalar RSUExampleScenario.node[14].nic.mac1609_4 SlotsBackoff 912
scalar RSUExampleScenario.node[14].nic.mac1609_4 NumInternalContention 0
scalar RSUExampleScenario.node[14].nic.mac1609_4 totalBusyTime 2.027612
scalar RSUExampleScenario.node[14].nic.mac1609_4 retriesExceeded:count 0
attr source org_car2x_veins_modules_mac_sigRetriesExceeded
scalar RSUExampleScenario.node[14].nic.mac1609_4 sentAcks:count 0
attr source org_car2x_veins_modules_mac_sigSentAck
scalar RSUExampleScenario.node[14].nic.mac1609_4 sentPackets:count 588
attr source org_car2x_veins_modules_mac_sigSentPacket
scalar RSUExampleScenario.node[14].nic.mac1609_4 collisions:count 0
attr source org_car2x_veins_modules_mac_sigCollision
scalar RSUExampleScenario.node[14].nic.mac1609_4 channelBusy:timeavg 0.03454194207838
attr source org_car2x_veins_modules_mac_sigChannelBusy
scalar RSUExampleScenario.node[14].veinsmobility startTime 16.3
scalar RSUExampleScenario.node[14].veinsmobility totalTime 58.7
scalar RSUExampleScenario.node[14].veinsmobility stopTime 75
scalar RSUExampleScenario.node[14].veinsmobility minSpeed 0.051209575683802
scalar RSUExampleScenario.node[14].veinsmobility maxSpeed 8.3284315303808
scalar RSUExampleScenario.node[14].veinsmobility totalDistance 291.04597550423
scalar RSUExampleScenario.node[14].veinsmobility totalCO2Emission 110.22934398374
scalar RSUExampleScenario.node[15].appl generatedWSMs 1
scalar RSUExampleScenario.node[15].appl receivedWSMs 32
scalar RSUExampleScenario.node[15].appl generatedBSMs 566
scalar RSUExampleScenario.node[15].appl receivedBSMs 18516
scalar RSUExampleScenario.node[15].appl generatedWSAs 0
scalar RSUExampleScenario.node[15].appl receivedWSAs 0
scalar RSUExampleScenario.node[15].nic.phy80211p busyTime 0.034250883392242
scalar RSUExampleScenario.node[15].nic.mac1609_4 ReceivedUnicastPackets 0
scalar RSUExampleScenario.node[15].nic.mac1609_4 ReceivedBroadcasts 18548
scalar RSUExampleScenario.node[15].nic.mac1609_4 SentPackets 567
scalar RSUExampleScenario.node[15].nic.mac1609_4 SentAcknowledgements 0
scalar RSUExampleScenario.node[15].nic.mac1609_4 RetriesExceeded 0
scalar RSUExampleScenario.node[15].nic.mac1609_4 SNIRLostPackets 53
scalar RSUExampleScenario.node[15].nic.mac1609_4 RXTXLostPackets 0
scalar RSUExampleScenario.node[15].nic.mac1609_4 TotalLostPackets 53
scalar RSUExampleScenario.node[15].nic.mac1609_4 DroppedPacketsInMac 0
scalar RSUExampleScenario.node[15].nic.mac1609_4 TooLittleTime 0
scalar RSUExampleScenario.node[15].nic.mac1609_4 TimesIntoBackoff 567
scalar RSUExampleScenario.node[15].nic.mac1609_4 SlotsBackoff 855
scalar RSUExampleScenario.node[15].nic.mac1609_4 NumInternalContention 0
scalar RSUExampleScenario.node[15].nic.mac1609_4 totalBusyTime 1.994831
scalar RSUExampleScenario.node[15].nic.mac1609_4 retriesExceeded:count 0
attr source org_car2x_veins_modules_mac_sigRetriesExceeded
scalar RSUExampleScenario.node[15].nic.mac1609_4 sentAcks:count 0
attr source org_car2x_veins_modules_mac_sigSentAck
scalar RSUExampleScenario.node[15].nic.mac1609_4 sentPackets:count 567
attr source org_car2x_veins_modules_mac_sigSentPacket
scalar RSUExampleScenario.node[15].nic.mac1609_4 collisions:count 0
attr source org_car2x_veins_modules_mac_sigCollision
scalar RSUExampleScenario.node[15].nic.mac1609_4 channelBusy:timeavg 0.035244363957614
attr source org_car2x_veins_modules_mac_sigChannelBusy
scalar RSUExampleScenario.node[15].veinsmobility startTime 18.4
scalar RSUExampleScenario.node[15].veinsmobility totalTime 56.6
scalar RSUExampleScenario.node[15].veinsmobility stopTime 75
scalar RSUExampleScenario.node[15].veinsmobility minSpeed 0.08431151300767
scalar RSUExampleScenario.node[15].veinsmobility maxSpeed 8.4847508813858
scalar RSUExampleScenario.node[15].veinsmobility totalDistance 274.66968282378
scalar RSUExampleScenario.node[15].veinsmobility totalCO2Emission 107.85714880516
scalar RSUExampleScenario.node[16].appl generatedWSMs 1
scalar RSUExampleScenario.node[16].appl receivedWSMs 32
scalar RSUExampleScenario.node[16].appl generatedBSMs 549
scalar RSUExampleScenario.node[16].appl receivedBSMs 18281
scalar RSUExampleScenario.node[16].appl generatedWSAs 0
scalar RSUExampleScenario.node[16].appl receivedWSAs 0
scalar RSUExampleScenario.node[16].nic.phy80211p busyTime 0.034828415300562
scalar RSUExampleScenario.node[16].nic.mac1609_4 ReceivedUnicastPackets 0
scalar RSUExampleScenario.node[16].nic.mac1609_4 ReceivedBroadcasts 18313
scalar RSUExampleScenario.node[16].nic.mac1609_4 SentPackets 550
scalar RSUExampleScenario.node[16].nic.mac1609_4 SentAcknowledgements 0
scalar RSUExampleScenario.node[16].nic.mac1609_4 RetriesExceeded 0
scalar RSUExampleScenario.node[16].nic.mac1609_4 SNIRLostPackets 33
scalar RSUExampleScenario.node[16].nic.mac1609_4 RXTXLostPackets 0
scalar RSUExampleScenario.node[16].nic.mac1609_4 TotalLostPackets 33
scalar RSUExampleScenario.node[16].nic.mac1609_4 DroppedPacketsInMac 0
scalar RSUExampleScenario.node[16].nic.mac1609_4 TooLittleTime 0
scalar RSUExampleScenario.node[16].nic.mac1609_4 TimesIntoBackoff 550
scalar RSUExampleScenario.node[16].nic.mac1609_4 SlotsBackoff 864
scalar RSUExampleScenario.node[16].nic.mac1609_4 NumInternalContention 0
scalar RSUExampleScenario.node[16].nic.mac1609_4 totalBusyTime 1.966526
scalar RSUExampleScenario.node[16].nic.mac1609_4 retriesExceeded:count 0
attr source org_car2x_veins_modules_mac_sigRetriesExceeded
scalar RSUExampleScenario.node[16].nic.mac1609_4 sentAcks:count 0
attr source org_car2x_veins_modules_mac_sigSentAck
scalar RSUExampleScenario.node[16].nic.mac1609_4 sentPackets:count 550
attr source org_car2x_veins_modules_mac_sigSentPacket
scalar RSUExampleScenario.node[16].nic.mac1609_4 collisions:count 0
attr source org_car2x_veins_modules_mac_sigCollision
scalar RSUExampleScenario.node[16].nic.mac1609_4 channelBusy:timeavg 0.035820145719506
attr source org_car2x_veins_modules_mac_sigChannelBusy
scalar RSUExampleScenario.node[16].veinsmobility startTime 20.1
scalar RSUExampleScenario.node[16].veinsmobility totalTime 54.9
scalar RSUExampleScenario.node[16].veinsmobility stopTime 75
scalar RSUExampleScenario.node[16].veinsmobility minSpeed 0.21041072332551
scalar RSUExampleScenario.node[16].veinsmobility maxSpeed 9.4081139211237
scalar RSUExampleScenario.node[16].veinsmobility totalDistance 416.02494705089
scalar RSUExampleScenario.node[16].veinsmobility totalCO2Emission 116.3819646603
scalar RSUExampleScenario.node[17].appl generatedWSMs 1
scalar RSUExampleScenario.node[17].appl receivedWSMs 32
scalar RSUExampleScenario.node[17].appl generatedBSMs 546
scalar RSUExampleScenario.node[17].appl receivedBSMs 18212
scalar RSUExampleScenario.node[17].appl generatedWSAs 0
scalar RSUExampleScenario.node[17].appl receivedWSAs 0
scalar RSUExampleScenario.node[17].nic.phy80211p busyTime 0.034928351648367
scalar RSUExampleScenario.node[17].nic.mac1609_4 ReceivedUnicastPackets 0
scalar RSUExampleScenario.node[17].nic.mac1609_4 ReceivedBroadcasts 18244
scalar RSUExampleScenario.node[17].nic.mac1609_4 SentPackets 547
scalar RSUExampleScenario.node[17].nic.mac1609_4 SentAcknowledgements 0
scalar RSUExampleScenario.node[17].nic.mac1609_4 RetriesExceeded 0
scalar RSUExampleScenario.node[17].nic.mac1609_4 SNIRLostPackets 54
scalar RSUExampleScenario.node[17].nic.mac1609_4 RXTXLostPackets 0
scalar RSUExampleScenario.node[17].nic.mac1609_4 TotalLostPackets 54
scalar RSUExampleScenario.node[17].nic.mac1609_4 DroppedPacketsInMac 0
scalar RSUExampleScenario.node[17].nic.mac1609_4 TooLittleTime 0
scalar RSUExampleScenario.node[17].nic.mac1609_4 TimesIntoBackoff 547
scalar RSUExampleScenario.node[17].nic.mac1609_4 SlotsBackoff 819
scalar RSUExampleScenario.node[17].nic.mac1609_4 NumInternalContention 0
scalar RSUExampleScenario.node[17].nic.mac1609_4 totalBusyTime 1.961219
scalar RSUExampleScenario.node[17].nic.mac1609_4 retriesExceeded:count 0
attr source org_car2x_veins_modules_mac_sigRetriesExceeded
scalar RSUExampleScenario.node[17].nic.mac1609_4 sentAcks:count 0
attr source org_car2x_veins_modules_mac_sigSentAck
scalar RSUExampleScenario.node[17].nic.mac1609_4 sentPackets:count 547
attr source org_car2x_veins_modules_mac_sigSentPacket
scalar RSUExampleScenario.node[17].nic.mac1609_4 collisions:count 0
attr source org_car2x_veins_modules_mac_sigCollision
scalar RSUExampleScenario.node[17].nic.mac1609_4 channelBusy:timeavg 0.035919761904778
attr source org_car2x_veins_modules_mac_sigChannelBusy
scalar RSUExampleScenario.node[17].veinsmobility startTime 20.4
scalar RSUExampleScenario.node[17].veinsmobility totalTime 54.6
scalar RSUExampleScenario.node[17].veinsmobility stopTime 75
scalar RSUExampleScenario.node[17].veinsmobility minSpeed 0.13454317691389
scalar RSUExampleScenario.node[17].veinsmobility maxSpeed 8.5530525140406
scalar RSUExampleScenario.node[17].veinsmobility totalDistance 257.88532548668
scalar RSUExampleScenario.node[17].veinsmobility totalCO2Emission 102.68840080847
scalar RSUExampleScenario.node[18].appl generatedWSMs 1
scalar RSUExampleScenario.node[18].appl receivedWSMs 32
scalar RSUExampleScenario.node[18].appl generatedBSMs 526
scalar RSUExampleScenario.node[18].appl receivedBSMs 17870
scalar RSUExampleScenario.node[18].appl generatedWSAs 0
scalar RSUExampleScenario.node[18].appl receivedWSAs 0
scalar RSUExampleScenario.node[18].nic.phy80211p busyTime 0.035584182509521
scalar RSUExampleScenario.node[18].nic.mac1609_4 ReceivedUnicastPackets 0
scalar RSUExampleScenario.node[18].nic.mac1609_4 ReceivedBroadcasts 17902
scalar RSUExampleScenario.node[18].nic.mac1609_4 SentPackets 527
scalar RSUExampleScenario.node[18].nic.mac1609_4 SentAcknowledgements 0
scalar RSUExampleScenario.node[18].nic.mac1609_4 RetriesExceeded 0
scalar RSUExampleScenario.node[18].nic.mac1609_4 SNIRLostPackets 56
scalar RSUExampleScenario.node[18].nic.mac1609_4 RXTXLostPackets 0
scalar RSUExampleScenario.node[18].nic.mac1609_4 TotalLostPackets 56
scalar RSUExampleScenario.node[18].nic.mac1609_4 DroppedPacketsInMac 0
scalar RSUExampleScenario.node[18].nic.mac1609_4 TooLittleTime 0
scalar RSUExampleScenario.node[18].nic.mac1609_4 TimesIntoBackoff 528
scalar RSUExampleScenario.node[18].nic.mac1609_4 SlotsBackoff 818
scalar RSUExampleScenario.node[18].nic.mac1609_4 NumInternalContention 0
scalar RSUExampleScenario.node[18].nic.mac1609_4 totalBusyTime 1.923759
scalar RSUExampleScenario.node[18].nic.mac1609_4 retriesExceeded:count 0
attr source org_car2x_veins_modules_mac_sigRetriesExceeded
scalar RSUExampleScenario.node[18].nic.mac1609_4 sentAcks:count 0
attr source org_car2x_veins_modules_mac_sigSentAck
scalar RSUExampleScenario.node[18].nic.mac1609_4 sentPackets:count 527
attr source org_car2x_veins_modules_mac_sigSentPacket
scalar RSUExampleScenario.node[18].nic.mac1609_4 collisions:count 0
attr source org_car2x_veins_modules_mac_sigCollision
scalar RSUExampleScenario.node[18].nic.mac1609_4 channelBusy:timeavg 0.036573365019028
attr source org_car2x_veins_modules_mac_sigChannelBusy
scalar RSUExampleScenario.node[18].veinsmobility startTime 22.4
scalar RSUExampleScenario.node[18].veinsmobility totalTime 52.6
scalar RSUExampleScenario.node[18].veinsmobility stopTime 75
scalar RSUExampleScenario.node[18].veinsmobility minSpeed 0.18874832857589
scalar RSUExampleScenario.node[18].veinsmobility maxSpeed 7.7701178639493
scalar RSUExampleScenario.node[18].veinsmobility totalDistance 240.87749659438
scalar RSUExampleScenario.node[18].veinsmobility totalCO2Emission 97.690563566077
scalar RSUExampleScenario.node[19].appl generatedWSMs 1
scalar RSUExampleScenario.node[19].appl receivedWSMs 32
scalar RSUExampleScenario.node[19].appl generatedBSMs 505
scalar RSUExampleScenario.node[19].appl receivedBSMs 17493
scalar RSUExampleScenario.node[19].appl generatedWSAs 0
scalar RSUExampleScenario.node[19].appl receivedWSAs 0
scalar RSUExampleScenario.node[19].nic.phy80211p busyTime 0.03628546534655
scalar RSUExampleScenario.node[19].nic.mac1609_4 ReceivedUnicastPackets 0
scalar RSUExampleScenario.node[19].nic.mac1609_4 ReceivedBroadcasts 17525
scalar RSUExampleScenario.node[19].nic.mac1609_4 SentPackets 506
scalar RSUExampleScenario.node[19].nic.mac1609_4 SentAcknowledgements 0
scalar RSUExampleScenario.node[19].nic.mac1609_4 RetriesExceeded 0
scalar RSUExampleScenario.node[19].nic.mac1609_4 SNIRLostPackets 55
scalar RSUExampleScenario.node[19].nic.mac1609_4 RXTXLostPackets 0
scalar RSUExampleScenario.node[19].nic.mac1609_4 TotalLostPackets 55
scalar RSUExampleScenario.node[19].nic.mac1609_4 DroppedPacketsInMac 0
scalar RSUExampleScenario.node[19].nic.mac1609_4 TooLittleTime 0
scalar RSUExampleScenario.node[19].nic.mac1609_4 TimesIntoBackoff 506
scalar RSUExampleScenario.node[19].nic.mac1609_4 SlotsBackoff 734
scalar RSUExampleScenario.node[19].nic.mac1609_4 NumInternalContention 0
scalar RSUExampleScenario.node[19].nic.mac1609_4 totalBusyTime 1.882242
scalar RSUExampleScenario.node[19].nic.mac1609_4 retriesExceeded:count 0
attr source org_car2x_veins_modules_mac_sigRetriesExceeded
scalar RSUExampleScenario.node[19].nic.mac1609_4 sentAcks:count 0
attr source org_car2x_veins_modules_mac_sigSentAck
scalar RSUExampleScenario.node[19].nic.mac1609_4 sentPackets:count 506
attr source org_car2x_veins_modules_mac_sigSentPacket
scalar RSUExampleScenario.node[19].nic.mac1609_4 collisions:count 0
attr source org_car2x_veins_modules_mac_sigCollision
scalar RSUExampleScenario.node[19].nic.mac1609_4 channelBusy:timeavg 0.037272118811897
attr source org_car2x_veins_modules_mac_sigChannelBusy
scalar RSUExampleScenario.node[19].veinsmobility startTime 24.5
scalar RSUExampleScenario.node[19].veinsmobility totalTime 50.5
scalar RSUExampleScenario.node[19].veinsmobility stopTime 75
scalar RSUExampleScenario.node[19].veinsmobility minSpeed 0.2690424430978
scalar RSUExampleScenario.node[19].veinsmobility maxSpeed 7.234878238339
scalar RSUExampleScenario.node[19].veinsmobility totalDistance 226.08415719548
scalar RSUExampleScenario.node[19].veinsmobility totalCO2Emission 87.909410815929
scalar RSUExampleScenario.node[20].appl generatedWSMs 1
scalar RSUExampleScenario.node[20].appl receivedWSMs 32
scalar RSUExampleScenario.node[20].appl generatedBSMs 499
scalar RSUExampleScenario.node[20].appl receivedBSMs 17401
scalar RSUExampleScenario.node[20].appl generatedWSAs 0
scalar RSUExampleScenario.node[20].appl receivedWSAs 0
scalar RSUExampleScenario.node[20].nic.phy80211p busyTime 0.036415390781578
scalar RSUExampleScenario.node[20].nic.mac1609_4 ReceivedUnicastPackets 0
scalar RSUExampleScenario.node[20].nic.mac1609_4 ReceivedBroadcasts 17433
scalar RSUExampleScenario.node[20].nic.mac1609_4 SentPackets 500
scalar RSUExampleScenario.node[20].nic.mac1609_4 SentAcknowledgements 0
scalar RSUExampleScenario.node[20].nic.mac1609_4 RetriesExceeded 0
scalar RSUExampleScenario.node[20].nic.mac1609_4 SNIRLostPackets 0
scalar RSUExampleScenario.node[20].nic.mac1609_4 RXTXLostPackets 33
scalar RSUExampleScenario.node[20].nic.mac1609_4 TotalLostPackets 33
scalar RSUExampleScenario.node[20].nic.mac1609_4 DroppedPacketsInMac 0
scalar RSUExampleScenario.node[20].nic.mac1609_4 TooLittleTime 0
scalar RSUExampleScenario.node[20].nic.mac1609_4 TimesIntoBackoff 948
scalar RSUExampleScenario.node[20].nic.mac1609_4 SlotsBackoff 1390
scalar RSUExampleScenario.node[20].nic.mac1609_4 NumInternalContention 0
scalar RSUExampleScenario.node[20].nic.mac1609_4 totalBusyTime 1.869756
scalar RSUExampleScenario.node[20].nic.mac1609_4 retriesExceeded:count 0
attr source org_car2x_veins_modules_mac_sigRetriesExceeded
scalar RSUExampleScenario.node[20].nic.mac1609_4 sentAcks:count 0
attr source org_car2x_veins_modules_mac_sigSentAck
scalar RSUExampleScenario.node[20].nic.mac1609_4 sentPackets:count 500
attr source org_car2x_veins_modules_mac_sigSentPacket
scalar RSUExampleScenario.node[20].nic.mac1609_4 collisions:count 0
attr source org_car2x_veins_modules_mac_sigCollision
scalar RSUExampleScenario.node[20].nic.mac1609_4 channelBusy:timeavg 0.037470060120257
attr source org_car2x_veins_modules_mac_sigChannelBusy
scalar RSUExampleScenario.node[20].veinsmobility startTime 25.1
scalar RSUExampleScenario.node[20].veinsmobility totalTime 49.9
scalar RSUExampleScenario.node[20].veinsmobility stopTime 75
scalar RSUExampleScenario.node[20].veinsmobility minSpeed 0.64028362234508
scalar RSUExampleScenario.node[20].veinsmobility maxSpeed 11.51849932296
scalar RSUExampleScenario.node[20].veinsmobility totalDistance 398.68782055073
scalar RSUExampleScenario.node[20].veinsmobility totalCO2Emission 110.13716004157
scalar RSUExampleScenario.node[21].appl generatedWSMs 1
scalar RSUExampleScenario.node[21].appl receivedWSMs 32
scalar RSUExampleScenario.node[21].appl generatedBSMs 485
scalar RSUExampleScenario.node[21].appl receivedBSMs 17100
scalar RSUExampleScenario.node[21].appl generatedWSAs 0
scalar RSUExampleScenario.node[21].appl receivedWSAs 0
scalar RSUExampleScenario.node[21].nic.phy80211p busyTime 0.03693690721651
scalar RSUExampleScenario.node[21].nic.mac1609_4 ReceivedUnicastPackets 0
scalar RSUExampleScenario.node[21].nic.mac1609_4 ReceivedBroadcasts 17132
scalar RSUExampleScenario.node[21].nic.mac1609_4 SentPackets 486
scalar RSUExampleScenario.node[21].nic.mac1609_4 SentAcknowledgements 0
scalar RSUExampleScenario.node[21].nic.mac1609_4 RetriesExceeded 0
scalar RSUExampleScenario.node[21].nic.mac1609_4 SNIRLostPackets 54
scalar RSUExampleScenario.node[21].nic.mac1609_4 RXTXLostPackets 0
scalar RSUExampleScenario.node[21].nic.mac1609_4 TotalLostPackets 54
scalar RSUExampleScenario.node[21].nic.mac1609_4 DroppedPacketsInMac 0
scalar RSUExampleScenario.node[21].nic.mac1609_4 TooLittleTime 0
scalar RSUExampleScenario.node[21].nic.mac1609_4 TimesIntoBackoff 486
scalar RSUExampleScenario.node[21].nic.mac1609_4 SlotsBackoff 726
scalar RSUExampleScenario.node[21].nic.mac1609_4 NumInternalContention 0
scalar RSUExampleScenario.node[21].nic.mac1609_4 totalBusyTime 1.839166
scalar RSUExampleScenario.node[21].nic.mac1609_4 retriesExceeded:count 0
attr source org_car2x_veins_modules_mac_sigRetriesExceeded
scalar RSUExampleScenario.node[21].nic.mac1609_4 sentAcks:count 0
attr source org_car2x_veins_modules_mac_sigSentAck
scalar RSUExampleScenario.node[21].nic.mac1609_4 sentPackets:count 486
attr source org_car2x_veins_modules_mac_sigSentPacket
scalar RSUExampleScenario.node[21].nic.mac1609_4 collisions:count 0
attr source org_car2x_veins_modules_mac_sigCollision
scalar RSUExampleScenario.node[21].nic.mac1609_4 channelBusy:timeavg 0.037920948453624
attr source org_car2x_veins_modules_mac_sigChannelBusy
scalar RSUExampleScenario.node[21].veinsmobility startTime 26.5
scalar RSUExampleScenario.node[21].veinsmobility totalTime 48.5
scalar RSUExampleScenario.node[21].veinsmobility stopTime 75
scalar RSUExampleScenario.node[21].veinsmobility minSpeed 0.34932670692921
scalar RSUExampleScenario.node[21].veinsmobility maxSpeed 7.0544392421489
scalar RSUExampleScenario.node[21].veinsmobility totalDistance 211.73815943469
scalar RSUExampleScenario.node[21].veinsmobility totalCO2Emission 82.688587078075
scalar RSUExampleScenario.node[22].appl generatedWSMs 1
scalar RSUExampleScenario.node[22].appl receivedWSMs 32
scalar RSUExampleScenario.node[22].appl generatedBSMs 466
scalar RSUExampleScenario.node[22].appl receivedBSMs 16702
scalar RSUExampleScenario.node[22].appl generatedWSAs 0
scalar RSUExampleScenario.node[22].appl receivedWSAs 0
scalar RSUExampleScenario.node[22].nic.phy80211p busyTime 0.037552446351946
scalar RSUExampleScenario.node[22].nic.mac1609_4 ReceivedUnicastPackets 0
scalar RSUExampleScenario.node[22].nic.mac1609_4 ReceivedBroadcasts 16734
scalar RSUExampleScenario.node[22].nic.mac1609_4 SentPackets 467
scalar RSUExampleScenario.node[22].nic.mac1609_4 SentAcknowledgements 0
scalar RSUExampleScenario.node[22].nic.mac1609_4 RetriesExceeded 0
scalar RSUExampleScenario.node[22].nic.mac1609_4 SNIRLostPackets 53
scalar RSUExampleScenario.node[22].nic.mac1609_4 RXTXLostPackets 0
scalar RSUExampleScenario.node[22].nic.mac1609_4 TotalLostPackets 53
scalar RSUExampleScenario.node[22].nic.mac1609_4 DroppedPacketsInMac 0
scalar RSUExampleScenario.node[22].nic.mac1609_4 TooLittleTime 0
scalar RSUExampleScenario.node[22].nic.mac1609_4 TimesIntoBackoff 467
scalar RSUExampleScenario.node[22].nic.mac1609_4 SlotsBackoff 711
scalar RSUExampleScenario.node[22].nic.mac1609_4 NumInternalContention 0
scalar RSUExampleScenario.node[22].nic.mac1609_4 totalBusyTime 1.795675
scalar RSUExampleScenario.node[22].nic.mac1609_4 retriesExceeded:count 0
attr source org_car2x_veins_modules_mac_sigRetriesExceeded
scalar RSUExampleScenario.node[22].nic.mac1609_4 sentAcks:count 0
attr source org_car2x_veins_modules_mac_sigSentAck
scalar RSUExampleScenario.node[22].nic.mac1609_4 sentPackets:count 467
attr source org_car2x_veins_modules_mac_sigSentPacket
scalar RSUExampleScenario.node[22].nic.mac1609_4 collisions:count 0
attr source org_car2x_veins_modules_mac_sigCollision
scalar RSUExampleScenario.node[22].nic.mac1609_4 channelBusy:timeavg 0.038533798283278
attr source org_car2x_veins_modules_mac_sigChannelBusy
scalar RSUExampleScenario.node[22].veinsmobility startTime 28.4
scalar RSUExampleScenario.node[22].veinsmobility totalTime 46.6
scalar RSUExampleScenario.node[22].veinsmobility stopTime 75
scalar RSUExampleScenario.node[22].veinsmobility minSpeed 0.45355325457323
scalar RSUExampleScenario.node[22].veinsmobility maxSpeed 6.9085855925682
scalar RSUExampleScenario.node[22].veinsmobility totalDistance 197.49890136819
scalar RSUExampleScenario.node[22].veinsmobility totalCO2Emission 78.653955749434
scalar RSUExampleScenario.node[23].appl generatedWSMs 1
scalar RSUExampleScenario.node[23].appl receivedWSMs 32
scalar RSUExampleScenario.node[23].appl generatedBSMs 449
scalar RSUExampleScenario.node[23].appl receivedBSMs 16348
scalar RSUExampleScenario.node[23].appl generatedWSAs 0
scalar RSUExampleScenario.node[23].appl receivedWSAs 0
scalar RSUExampleScenario.node[23].nic.phy80211p busyTime 0.038107973273957
scalar RSUExampleScenario.node[23].nic.mac1609_4 ReceivedUnicastPackets 0
scalar RSUExampleScenario.node[23].nic.mac1609_4 ReceivedBroadcasts 16380
scalar RSUExampleScenario.node[23].nic.mac1609_4 SentPackets 450
scalar RSUExampleScenario.node[23].nic.mac1609_4 SentAcknowledgements 0
scalar RSUExampleScenario.node[23].nic.mac1609_4 RetriesExceeded 0
scalar RSUExampleScenario.node[23].nic.mac1609_4 SNIRLostPackets 33
scalar RSUExampleScenario.node[23].nic.mac1609_4 RXTXLostPackets 0
scalar RSUExampleScenario.node[23].nic.mac1609_4 TotalLostPackets 33
scalar RSUExampleScenario.node[23].nic.mac1609_4 DroppedPacketsInMac 0
scalar RSUExampleScenario.node[23].nic.mac1609_4 TooLittleTime 0
scalar RSUExampleScenario.node[23].nic.mac1609_4 TimesIntoBackoff 450
scalar RSUExampleScenario.node[23].nic.mac1609_4 SlotsBackoff 692
scalar RSUExampleScenario.node[23].nic.mac1609_4 NumInternalContention 0
scalar RSUExampleScenario.node[23].nic.mac1609_4 totalBusyTime 1.754994
scalar RSUExampleScenario.node[23].nic.mac1609_4 retriesExceeded:count 0
attr source org_car2x_veins_modules_mac_sigRetriesExceeded
scalar RSUExampleScenario.node[23].nic.mac1609_4 sentAcks:count 0
attr source org_car2x_veins_modules_mac_sigSentAck
scalar RSUExampleScenario.node[23].nic.mac1609_4 sentPackets:count 450
attr source org_car2x_veins_modules_mac_sigSentPacket
scalar RSUExampleScenario.node[23].nic.mac1609_4 collisions:count 0
attr source org_car2x_veins_modules_mac_sigCollision
scalar RSUExampleScenario.node[23].nic.mac1609_4 channelBusy:timeavg 0.039086726057922
attr source org_car2x_veins_modules_mac_sigChannelBusy
scalar RSUExampleScenario.node[23].veinsmobility startTime 30.1
scalar RSUExampleScenario.node[23].veinsmobility totalTime 44.9
scalar RSUExampleScenario.node[23].veinsmobility stopTime 75
scalar RSUExampleScenario.node[23].veinsmobility minSpeed 2.8601575206326
scalar RSUExampleScenario.node[23].veinsmobility maxSpeed 10.503258667983
scalar RSUExampleScenario.node[23].veinsmobility totalDistance 381.27560734476
scalar RSUExampleScenario.node[23].veinsmobility totalCO2Emission 105.18366227664
scalar RSUExampleScenario.node[24].appl generatedWSMs 1
scalar RSUExampleScenario.node[24].appl receivedWSMs 32
scalar RSUExampleScenario.node[24].appl generatedBSMs 448
scalar RSUExampleScenario.node[24].appl receivedBSMs 16301
scalar RSUExampleScenario.node[24].appl generatedWSAs 0
scalar RSUExampleScenario.node[24].appl receivedWSAs 0
scalar RSUExampleScenario.node[24].nic.phy80211p busyTime 0.038139642857157
scalar RSUExampleScenario.node[24].nic.mac1609_4 ReceivedUnicastPackets 0
scalar RSUExampleScenario.node[24].nic.mac1609_4 ReceivedBroadcasts 16333
scalar RSUExampleScenario.node[24].nic.mac1609_4 SentPackets 449
scalar RSUExampleScenario.node[24].nic.mac1609_4 SentAcknowledgements 0
scalar RSUExampleScenario.node[24].nic.mac1609_4 RetriesExceeded 0
scalar RSUExampleScenario.node[24].nic.mac1609_4 SNIRLostPackets 57
scalar RSUExampleScenario.node[24].nic.mac1609_4 RXTXLostPackets 0
scalar RSUExampleScenario.node[24].nic.mac1609_4 TotalLostPackets 57
scalar RSUExampleScenario.node[24].nic.mac1609_4 DroppedPacketsInMac 0
scalar RSUExampleScenario.node[24].nic.mac1609_4 TooLittleTime 0
scalar RSUExampleScenario.node[24].nic.mac1609_4 TimesIntoBackoff 449
scalar RSUExampleScenario.node[24].nic.mac1609_4 SlotsBackoff 658
scalar RSUExampleScenario.node[24].nic.mac1609_4 NumInternalContention 0
scalar RSUExampleScenario.node[24].nic.mac1609_4 totalBusyTime 1.752497
scalar RSUExampleScenario.node[24].nic.mac1609_4 retriesExceeded:count 0
attr source org_car2x_veins_modules_mac_sigRetriesExceeded
scalar RSUExampleScenario.node[24].nic.mac1609_4 sentAcks:count 0
attr source org_car2x_veins_modules_mac_sigSentAck
scalar RSUExampleScenario.node[24].nic.mac1609_4 sentPackets:count 449
attr source org_car2x_veins_modules_mac_sigSentPacket
scalar RSUExampleScenario.node[24].nic.mac1609_4 collisions:count 0
attr source org_car2x_veins_modules_mac_sigCollision
scalar RSUExampleScenario.node[24].nic.mac1609_4 channelBusy:timeavg 0.039118236607158
attr source org_car2x_veins_modules_mac_sigChannelBusy
scalar RSUExampleScenario.node[24].veinsmobility startTime 30.2
scalar RSUExampleScenario.node[24].veinsmobility totalTime 44.8
scalar RSUExampleScenario.node[24].veinsmobility stopTime 75
scalar RSUExampleScenario.node[24].veinsmobility minSpeed 0.53543584022744
scalar RSUExampleScenario.node[24].veinsmobility maxSpeed 6.5666396036448
scalar RSUExampleScenario.node[24].veinsmobility totalDistance 183.41868991832
scalar RSUExampleScenario.node[24].veinsmobility totalCO2Emission 76.62136340516
scalar RSUExampleScenario.node[25].appl generatedWSMs 1
scalar RSUExampleScenario.node[25].appl receivedWSMs 32
scalar RSUExampleScenario.node[25].appl generatedBSMs 428
scalar RSUExampleScenario.node[25].appl receivedBSMs 15818
scalar RSUExampleScenario.node[25].appl generatedWSAs 0
scalar RSUExampleScenario.node[25].appl receivedWSAs 0
scalar RSUExampleScenario.node[25].nic.phy80211p busyTime 0.038755514018706
scalar RSUExampleScenario.node[25].nic.mac1609_4 ReceivedUnicastPackets 0
scalar RSUExampleScenario.node[25].nic.mac1609_4 ReceivedBroadcasts 15850
scalar RSUExampleScenario.node[25].nic.mac1609_4 SentPackets 429
scalar RSUExampleScenario.node[25].nic.mac1609_4 SentAcknowledgements 0
scalar RSUExampleScenario.node[25].nic.mac1609_4 RetriesExceeded 0
scalar RSUExampleScenario.node[25].nic.mac1609_4 SNIRLostPackets 60
scalar RSUExampleScenario.node[25].nic.mac1609_4 RXTXLostPackets 0
scalar RSUExampleScenario.node[25].nic.mac1609_4 TotalLostPackets 60
scalar RSUExampleScenario.node[25].nic.mac1609_4 DroppedPacketsInMac 0
scalar RSUExampleScenario.node[25].nic.mac1609_4 TooLittleTime 0
scalar RSUExampleScenario.node[25].nic.mac1609_4 TimesIntoBackoff 429
scalar RSUExampleScenario.node[25].nic.mac1609_4 SlotsBackoff 639
scalar RSUExampleScenario.node[25].nic.mac1609_4 NumInternalContention 0
scalar RSUExampleScenario.node[25].nic.mac1609_4 totalBusyTime 1.700477
scalar RSUExampleScenario.node[25].nic.mac1609_4 retriesExceeded:count 0
attr source org_car2x_veins_modules_mac_sigRetriesExceeded
scalar RSUExampleScenario.node[25].nic.mac1609_4 sentAcks:count 0
attr source org_car2x_veins_modules_mac_sigSentAck
scalar RSUExampleScenario.node[25].nic.mac1609_4 sentPackets:count 429
attr source org_car2x_veins_modules_mac_sigSentPacket
scalar RSUExampleScenario.node[25].nic.mac1609_4 collisions:count 0
attr source org_car2x_veins_modules_mac_sigCollision
scalar RSUExampleScenario.node[25].nic.mac1609_4 channelBusy:timeavg 0.039730771028052
attr source org_car2x_veins_modules_mac_sigChannelBusy
scalar RSUExampleScenario.node[25].veinsmobility startTime 32.2
scalar RSUExampleScenario.node[25].veinsmobility totalTime 42.8
scalar RSUExampleScenario.node[25].veinsmobility stopTime 75
scalar RSUExampleScenario.node[25].veinsmobility minSpeed 0.63929432078641
scalar RSUExampleScenario.node[25].veinsmobility maxSpeed 6.3763246761153
scalar RSUExampleScenario.node[25].veinsmobility totalDistance 169.51639326765
scalar RSUExampleScenario.node[25].veinsmobility totalCO2Emission 73.291466767635
scalar RSUExampleScenario.node[26].appl generatedWSMs 1
scalar RSUExampleScenario.node[26].appl receivedWSMs 31
scalar RSUExampleScenario.node[26].appl generatedBSMs 407
scalar RSUExampleScenario.node[26].appl receivedBSMs 15289
scalar RSUExampleScenario.node[26].appl generatedWSAs 0
scalar RSUExampleScenario.node[26].appl receivedWSAs 0
scalar RSUExampleScenario.node[26].nic.phy80211p busyTime 0.039407960687974
scalar RSUExampleScenario.node[26].nic.mac1609_4 ReceivedUnicastPackets 0
scalar RSUExampleScenario.node[26].nic.mac1609_4 ReceivedBroadcasts 15320
scalar RSUExampleScenario.node[26].nic.mac1609_4 SentPackets 408
scalar RSUExampleScenario.node[26].nic.mac1609_4 SentAcknowledgements 0
scalar RSUExampleScenario.node[26].nic.mac1609_4 RetriesExceeded 0
scalar RSUExampleScenario.node[26].nic.mac1609_4 SNIRLostPackets 64
scalar RSUExampleScenario.node[26].nic.mac1609_4 RXTXLostPackets 0
scalar RSUExampleScenario.node[26].nic.mac1609_4 TotalLostPackets 64
scalar RSUExampleScenario.node[26].nic.mac1609_4 DroppedPacketsInMac 0
scalar RSUExampleScenario.node[26].nic.mac1609_4 TooLittleTime 0
scalar RSUExampleScenario.node[26].nic.mac1609_4 TimesIntoBackoff 408
scalar RSUExampleScenario.node[26].nic.mac1609_4 SlotsBackoff 597
scalar RSUExampleScenario.node[26].nic.mac1609_4 NumInternalContention 0
scalar RSUExampleScenario.node[26].nic.mac1609_4 totalBusyTime 1.64344
scalar RSUExampleScenario.node[26].nic.mac1609_4 retriesExceeded:count 0
attr source org_car2x_veins_modules_mac_sigRetriesExceeded
scalar RSUExampleScenario.node[26].nic.mac1609_4 sentAcks:count 0
attr source org_car2x_veins_modules_mac_sigSentAck
scalar RSUExampleScenario.node[26].nic.mac1609_4 sentPackets:count 408
attr source org_car2x_veins_modules_mac_sigSentPacket
scalar RSUExampleScenario.node[26].nic.mac1609_4 collisions:count 0
attr source org_car2x_veins_modules_mac_sigCollision
scalar RSUExampleScenario.node[26].nic.mac1609_4 channelBusy:timeavg 0.040379361179375
attr source org_car2x_veins_modules_mac_sigChannelBusy
scalar RSUExampleScenario.node[26].veinsmobility startTime 34.3
scalar RSUExampleScenario.node[26].veinsmobility totalTime 40.7
scalar RSUExampleScenario.node[26].veinsmobility stopTime 75
scalar RSUExampleScenario.node[26].veinsmobility minSpeed 0.756391652119
scalar RSUExampleScenario.node[26].veinsmobility maxSpeed 6.2169040405588
scalar RSUExampleScenario.node[26].veinsmobility totalDistance 155.77791456914
scalar RSUExampleScenario.node[26].veinsmobility totalCO2Emission 68.194807974017
scalar RSUExampleScenario.node[27].appl generatedWSMs 1
scalar RSUExampleScenario.node[27].appl receivedWSMs 6
scalar RSUExampleScenario.node[27].appl generatedBSMs 399
scalar RSUExampleScenario.node[27].appl receivedBSMs 15112
scalar RSUExampleScenario.node[27].appl generatedWSAs 0
scalar RSUExampleScenario.node[27].appl receivedWSAs 0
scalar RSUExampleScenario.node[27].nic.phy80211p busyTime 0.039510576441116
scalar RSUExampleScenario.node[27].nic.mac1609_4 ReceivedUnicastPackets 0
scalar RSUExampleScenario.node[27].nic.mac1609_4 ReceivedBroadcasts 15118
scalar RSUExampleScenario.node[27].nic.mac1609_4 SentPackets 400
scalar RSUExampleScenario.node[27].nic.mac1609_4 SentAcknowledgements 0
scalar RSUExampleScenario.node[27].nic.mac1609_4 RetriesExceeded 0
scalar RSUExampleScenario.node[27].nic.mac1609_4 SNIRLostPackets 33
scalar RSUExampleScenario.node[27].nic.mac1609_4 RXTXLostPackets 0
scalar RSUExampleScenario.node[27].nic.mac1609_4 TotalLostPackets 33
scalar RSUExampleScenario.node[27].nic.mac1609_4 DroppedPacketsInMac 0
scalar RSUExampleScenario.node[27].nic.mac1609_4 TooLittleTime 0
scalar RSUExampleScenario.node[27].nic.mac1609_4 TimesIntoBackoff 400
scalar RSUExampleScenario.node[27].nic.mac1609_4 SlotsBackoff 620
scalar RSUExampleScenario.node[27].nic.mac1609_4 NumInternalContention 0
scalar RSUExampleScenario.node[27].nic.mac1609_4 totalBusyTime 1.615168
scalar RSUExampleScenario.node[27].nic.mac1609_4 retriesExceeded:count 0
attr source org_car2x_veins_modules_mac_sigRetriesExceeded
scalar RSUExampleScenario.node[27].nic.mac1609_4 sentAcks:count 0
attr source org_car2x_veins_modules_mac_sigSentAck
scalar RSUExampleScenario.node[27].nic.mac1609_4 sentPackets:count 400
attr source org_car2x_veins_modules_mac_sigSentPacket
scalar RSUExampleScenario.node[27].nic.mac1609_4 collisions:count 0
attr source org_car2x_veins_modules_mac_sigCollision
scalar RSUExampleScenario.node[27].nic.mac1609_4 channelBusy:timeavg 0.04048040100252
attr source org_car2x_veins_modules_mac_sigChannelBusy
scalar RSUExampleScenario.node[27].veinsmobility startTime 35.1
scalar RSUExampleScenario.node[27].veinsmobility totalTime 39.9
scalar RSUExampleScenario.node[27].veinsmobility stopTime 75
scalar RSUExampleScenario.node[27].veinsmobility minSpeed 5.6478134893437
scalar RSUExampleScenario.node[27].veinsmobility maxSpeed 9.0813380125631
scalar RSUExampleScenario.node[27].veinsmobility totalDistance 350.63462502782
scalar RSUExampleScenario.node[27].veinsmobility totalCO2Emission 94.476063623343
scalar RSUExampleScenario.node[28].appl generatedWSMs 1
scalar RSUExampleScenario.node[28].appl receivedWSMs 6
scalar RSUExampleScenario.node[28].appl generatedBSMs 387
scalar RSUExampleScenario.node[28].appl receivedBSMs 14758
scalar RSUExampleScenario.node[28].appl generatedWSAs 0
scalar RSUExampleScenario.node[28].appl receivedWSAs 0
scalar RSUExampleScenario.node[28].nic.phy80211p busyTime 0.039865012919909
scalar RSUExampleScenario.node[28].nic.mac1609_4 ReceivedUnicastPackets 0
scalar RSUExampleScenario.node[28].nic.mac1609_4 ReceivedBroadcasts 14764
scalar RSUExampleScenario.node[28].nic.mac1609_4 SentPackets 388
scalar RSUExampleScenario.node[28].nic.mac1609_4 SentAcknowledgements 0
scalar RSUExampleScenario.node[28].nic.mac1609_4 RetriesExceeded 0
scalar RSUExampleScenario.node[28].nic.mac1609_4 SNIRLostPackets 63
scalar RSUExampleScenario.node[28].nic.mac1609_4 RXTXLostPackets 0
scalar RSUExampleScenario.node[28].nic.mac1609_4 TotalLostPackets 63
scalar RSUExampleScenario.node[28].nic.mac1609_4 DroppedPacketsInMac 0
scalar RSUExampleScenario.node[28].nic.mac1609_4 TooLittleTime 0
scalar RSUExampleScenario.node[28].nic.mac1609_4 TimesIntoBackoff 388
scalar RSUExampleScenario.node[28].nic.mac1609_4 SlotsBackoff 572
scalar RSUExampleScenario.node[28].nic.mac1609_4 NumInternalContention 0
scalar RSUExampleScenario.node[28].nic.mac1609_4 totalBusyTime 1.580212
scalar RSUExampleScenario.node[28].nic.mac1609_4 retriesExceeded:count 0
attr source org_car2x_veins_modules_mac_sigRetriesExceeded
scalar RSUExampleScenario.node[28].nic.mac1609_4 sentAcks:count 0
attr source org_car2x_veins_modules_mac_sigSentAck
scalar RSUExampleScenario.node[28].nic.mac1609_4 sentPackets:count 388
attr source org_car2x_veins_modules_mac_sigSentPacket
scalar RSUExampleScenario.node[28].nic.mac1609_4 collisions:count 0
attr source org_car2x_veins_modules_mac_sigCollision
scalar RSUExampleScenario.node[28].nic.mac1609_4 channelBusy:timeavg 0.040832351421202
attr source org_car2x_veins_modules_mac_sigChannelBusy
scalar RSUExampleScenario.node[28].veinsmobility startTime 36.3
scalar RSUExampleScenario.node[28].veinsmobility totalTime 38.7
scalar RSUExampleScenario.node[28].veinsmobility stopTime 75
scalar RSUExampleScenario.node[28].veinsmobility minSpeed 0.86866171605602
scalar RSUExampleScenario.node[28].veinsmobility maxSpeed 6.0102589213914
scalar RSUExampleScenario.node[28].veinsmobility totalDistance 142.25540457441
scalar RSUExampleScenario.node[28].veinsmobility totalCO2Emission 63.826805665898
scalar RSUExampleScenario.node[29].appl generatedWSMs 1
scalar RSUExampleScenario.node[29].appl receivedWSMs 5
scalar RSUExampleScenario.node[29].appl generatedBSMs 365
scalar RSUExampleScenario.node[29].appl receivedBSMs 14141
scalar RSUExampleScenario.node[29].appl generatedWSAs 0
scalar RSUExampleScenario.node[29].appl receivedWSAs 0
scalar RSUExampleScenario.node[29].nic.phy80211p busyTime 0.040506301369875
scalar RSUExampleScenario.node[29].nic.mac1609_4 ReceivedUnicastPackets 0
scalar RSUExampleScenario.node[29].nic.mac1609_4 ReceivedBroadcasts 14146
scalar RSUExampleScenario.node[29].nic.mac1609_4 SentPackets 366
scalar RSUExampleScenario.node[29].nic.mac1609_4 SentAcknowledgements 0
scalar RSUExampleScenario.node[29].nic.mac1609_4 RetriesExceeded 0
scalar RSUExampleScenario.node[29].nic.mac1609_4 SNIRLostPackets 64
scalar RSUExampleScenario.node[29].nic.mac1609_4 RXTXLostPackets 0
scalar RSUExampleScenario.node[29].nic.mac1609_4 TotalLostPackets 64
scalar RSUExampleScenario.node[29].nic.mac1609_4 DroppedPacketsInMac 0
scalar RSUExampleScenario.node[29].nic.mac1609_4 TooLittleTime 0
scalar RSUExampleScenario.node[29].nic.mac1609_4 TimesIntoBackoff 366
scalar RSUExampleScenario.node[29].nic.mac1609_4 SlotsBackoff 535
scalar RSUExampleScenario.node[29].nic.mac1609_4 NumInternalContention 0
scalar RSUExampleScenario.node[29].nic.mac1609_4 totalBusyTime 1.513606
scalar RSUExampleScenario.node[29].nic.mac1609_4 retriesExceeded:count 0
attr source org_car2x_veins_modules_mac_sigRetriesExceeded
scalar RSUExampleScenario.node[29].nic.mac1609_4 sentAcks:count 0
attr source org_car2x_veins_modules_mac_sigSentAck
scalar RSUExampleScenario.node[29].nic.mac1609_4 sentPackets:count 366
attr source org_car2x_veins_modules_mac_sigSentPacket
scalar RSUExampleScenario.node[29].nic.mac1609_4 collisions:count 0
attr source org_car2x_veins_modules_mac_sigCollision
scalar RSUExampleScenario.node[29].nic.mac1609_4 channelBusy:timeavg 0.041468657534259
attr source org_car2x_veins_modules_mac_sigChannelBusy
scalar RSUExampleScenario.node[29].veinsmobility startTime 38.5
scalar RSUExampleScenario.node[29].veinsmobility totalTime 36.5
scalar RSUExampleScenario.node[29].veinsmobility stopTime 75
scalar RSUExampleScenario.node[29].veinsmobility minSpeed 0.98871441906144
scalar RSUExampleScenario.node[29].veinsmobility maxSpeed 5.7924739340063
scalar RSUExampleScenario.node[29].veinsmobility totalDistance 128.96313552274
scalar RSUExampleScenario.node[29].veinsmobility totalCO2Emission 57.651349604857
scalar RSUExampleScenario.node[30].appl generatedWSMs 1
scalar RSUExampleScenario.node[30].appl receivedWSMs 3
scalar RSUExampleScenario.node[30].appl generatedBSMs 349
scalar RSUExampleScenario.node[30].appl receivedBSMs 13697
scalar RSUExampleScenario.node[30].appl generatedWSAs 0
scalar RSUExampleScenario.node[30].appl receivedWSAs 0
scalar RSUExampleScenario.node[30].nic.phy80211p busyTime 0.040967335243564
scalar RSUExampleScenario.node[30].nic.mac1609_4 ReceivedUnicastPackets 0
scalar RSUExampleScenario.node[30].nic.mac1609_4 ReceivedBroadcasts 13700
scalar RSUExampleScenario.node[30].nic.mac1609_4 SentPackets 350
scalar RSUExampleScenario.node[30].nic.mac1609_4 SentAcknowledgements 0
scalar RSUExampleScenario.node[30].nic.mac1609_4 RetriesExceeded 0
scalar RSUExampleScenario.node[30].nic.mac1609_4 SNIRLostPackets 44
scalar RSUExampleScenario.node[30].nic.mac1609_4 RXTXLostPackets 0
scalar RSUExampleScenario.node[30].nic.mac1609_4 TotalLostPackets 44
scalar RSUExampleScenario.node[30].nic.mac1609_4 DroppedPacketsInMac 0
scalar RSUExampleScenario.node[30].nic.mac1609_4 TooLittleTime 0
scalar RSUExampleScenario.node[30].nic.mac1609_4 TimesIntoBackoff 350
scalar RSUExampleScenario.node[30].nic.mac1609_4 SlotsBackoff 515
scalar RSUExampleScenario.node[30].nic.mac1609_4 NumInternalContention 0
scalar RSUExampleScenario.node[30].nic.mac1609_4 totalBusyTime 1.463206
scalar RSUExampleScenario.node[30].nic.mac1609_4 retriesExceeded:count 0
attr source org_car2x_veins_modules_mac_sigRetriesExceeded
scalar RSUExampleScenario.node[30].nic.mac1609_4 sentAcks:count 0
attr source org_car2x_veins_modules_mac_sigSentAck
scalar RSUExampleScenario.node[30].nic.mac1609_4 sentPackets:count 350
attr source org_car2x_veins_modules_mac_sigSentPacket
scalar RSUExampleScenario.node[30].nic.mac1609_4 collisions:count 0
attr source org_car2x_veins_modules_mac_sigCollision
scalar RSUExampleScenario.node[30].nic.mac1609_4 channelBusy:timeavg 0.041925673352447
attr source org_car2x_veins_modules_mac_sigChannelBusy
scalar RSUExampleScenario.node[30].veinsmobility startTime 40.1
scalar RSUExampleScenario.node[30].veinsmobility totalTime 34.9
scalar RSUExampleScenario.node[30].veinsmobility stopTime 75
scalar RSUExampleScenario.node[30].veinsmobility minSpeed 5.4612012985762
scalar RSUExampleScenario.node[30].veinsmobility maxSpeed 8.6440653749629
scalar RSUExampleScenario.node[30].veinsmobility totalDistance 293.91324879937
scalar RSUExampleScenario.node[30].veinsmobility totalCO2Emission 80.278397023573
scalar RSUExampleScenario.node[31].appl generatedWSMs 1
scalar RSUExampleScenario.node[31].appl receivedWSMs 3
[...]
scalar RSUExampleScenario.node[40].appl receivedBSMs 8089
scalar RSUExampleScenario.node[40].appl generatedWSAs 0
scalar RSUExampleScenario.node[40].appl receivedWSAs 0
scalar RSUExampleScenario.node[40].nic.phy80211p busyTime 0.045112765957444
scalar RSUExampleScenario.node[40].nic.mac1609_4 ReceivedUnicastPackets 0
scalar RSUExampleScenario.node[40].nic.mac1609_4 ReceivedBroadcasts 8089
scalar RSUExampleScenario.node[40].nic.mac1609_4 SentPackets 188
scalar RSUExampleScenario.node[40].nic.mac1609_4 SentAcknowledgements 0
scalar RSUExampleScenario.node[40].nic.mac1609_4 RetriesExceeded 0
scalar RSUExampleScenario.node[40].nic.mac1609_4 SNIRLostPackets 66
scalar RSUExampleScenario.node[40].nic.mac1609_4 RXTXLostPackets 0
scalar RSUExampleScenario.node[40].nic.mac1609_4 TotalLostPackets 66
scalar RSUExampleScenario.node[40].nic.mac1609_4 DroppedPacketsInMac 0
scalar RSUExampleScenario.node[40].nic.mac1609_4 TooLittleTime 0
scalar RSUExampleScenario.node[40].nic.mac1609_4 TimesIntoBackoff 188
scalar RSUExampleScenario.node[40].nic.mac1609_4 SlotsBackoff 258
scalar RSUExampleScenario.node[40].nic.mac1609_4 NumInternalContention 0
scalar RSUExampleScenario.node[40].nic.mac1609_4 totalBusyTime 0.864428
scalar RSUExampleScenario.node[40].nic.mac1609_4 retriesExceeded:count 0
attr source org_car2x_veins_modules_mac_sigRetriesExceeded
scalar RSUExampleScenario.node[40].nic.mac1609_4 sentAcks:count 0
attr source org_car2x_veins_modules_mac_sigSentAck
scalar RSUExampleScenario.node[40].nic.mac1609_4 sentPackets:count 188
attr source org_car2x_veins_modules_mac_sigSentPacket
scalar RSUExampleScenario.node[40].nic.mac1609_4 collisions:count 0
attr source org_car2x_veins_modules_mac_sigCollision
scalar RSUExampleScenario.node[40].nic.mac1609_4 channelBusy:timeavg 0.045980212765955
attr source org_car2x_veins_modules_mac_sigChannelBusy
scalar RSUExampleScenario.node[40].veinsmobility startTime 56.2
scalar RSUExampleScenario.node[40].veinsmobility totalTime 18.8
scalar RSUExampleScenario.node[40].veinsmobility stopTime 75
scalar RSUExampleScenario.node[40].veinsmobility minSpeed 0.96697212925997
scalar RSUExampleScenario.node[40].veinsmobility maxSpeed 3.8236830175016
scalar RSUExampleScenario.node[40].veinsmobility totalDistance 43.420449077457
scalar RSUExampleScenario.node[40].veinsmobility totalCO2Emission 26.329637718045
scalar RSUExampleScenario.node[41].appl generatedWSMs 0
scalar RSUExampleScenario.node[41].appl receivedWSMs 0
scalar RSUExampleScenario.node[41].appl generatedBSMs 153
scalar RSUExampleScenario.node[41].appl receivedBSMs 6689
scalar RSUExampleScenario.node[41].appl generatedWSAs 0
scalar RSUExampleScenario.node[41].appl receivedWSAs 0
scalar RSUExampleScenario.node[41].nic.phy80211p busyTime 0.045916339869279
scalar RSUExampleScenario.node[41].nic.mac1609_4 ReceivedUnicastPackets 0
scalar RSUExampleScenario.node[41].nic.mac1609_4 ReceivedBroadcasts 6689
scalar RSUExampleScenario.node[41].nic.mac1609_4 SentPackets 153
scalar RSUExampleScenario.node[41].nic.mac1609_4 SentAcknowledgements 0
scalar RSUExampleScenario.node[41].nic.mac1609_4 RetriesExceeded 0
scalar RSUExampleScenario.node[41].nic.mac1609_4 SNIRLostPackets 66
scalar RSUExampleScenario.node[41].nic.mac1609_4 RXTXLostPackets 0
scalar RSUExampleScenario.node[41].nic.mac1609_4 TotalLostPackets 66
scalar RSUExampleScenario.node[41].nic.mac1609_4 DroppedPacketsInMac 0
scalar RSUExampleScenario.node[41].nic.mac1609_4 TooLittleTime 0
scalar RSUExampleScenario.node[41].nic.mac1609_4 TimesIntoBackoff 306
scalar RSUExampleScenario.node[41].nic.mac1609_4 SlotsBackoff 457
scalar RSUExampleScenario.node[41].nic.mac1609_4 NumInternalContention 0
scalar RSUExampleScenario.node[41].nic.mac1609_4 totalBusyTime 0.715153
scalar RSUExampleScenario.node[41].nic.mac1609_4 retriesExceeded:count 0
attr source org_car2x_veins_modules_mac_sigRetriesExceeded
scalar RSUExampleScenario.node[41].nic.mac1609_4 sentAcks:count 0
attr source org_car2x_veins_modules_mac_sigSentAck
scalar RSUExampleScenario.node[41].nic.mac1609_4 sentPackets:count 153
attr source org_car2x_veins_modules_mac_sigSentPacket
scalar RSUExampleScenario.node[41].nic.mac1609_4 collisions:count 0
attr source org_car2x_veins_modules_mac_sigCollision
scalar RSUExampleScenario.node[41].nic.mac1609_4 channelBusy:timeavg 0.046742026143789
attr source org_car2x_veins_modules_mac_sigChannelBusy
scalar RSUExampleScenario.node[41].veinsmobility startTime 59.7
scalar RSUExampleScenario.node[41].veinsmobility totalTime 15.3
scalar RSUExampleScenario.node[41].veinsmobility stopTime 75
scalar RSUExampleScenario.node[41].veinsmobility minSpeed 0.68844372372002
scalar RSUExampleScenario.node[41].veinsmobility maxSpeed 3.598394799275
scalar RSUExampleScenario.node[41].veinsmobility totalDistance 32.419086636499
scalar RSUExampleScenario.node[41].veinsmobility totalCO2Emission 21.12893168856
scalar RSUExampleScenario.node[42].appl generatedWSMs 0
scalar RSUExampleScenario.node[42].appl receivedWSMs 0
scalar RSUExampleScenario.node[42].appl generatedBSMs 149
scalar RSUExampleScenario.node[42].appl receivedBSMs 6534
scalar RSUExampleScenario.node[42].appl generatedWSAs 0
scalar RSUExampleScenario.node[42].appl receivedWSAs 0
scalar RSUExampleScenario.node[42].nic.phy80211p busyTime 0.046004295302011
scalar RSUExampleScenario.node[42].nic.mac1609_4 ReceivedUnicastPackets 0
scalar RSUExampleScenario.node[42].nic.mac1609_4 ReceivedBroadcasts 6534
scalar RSUExampleScenario.node[42].nic.mac1609_4 SentPackets 149
scalar RSUExampleScenario.node[42].nic.mac1609_4 SentAcknowledgements 0
scalar RSUExampleScenario.node[42].nic.mac1609_4 RetriesExceeded 0
scalar RSUExampleScenario.node[42].nic.mac1609_4 SNIRLostPackets 57
scalar RSUExampleScenario.node[42].nic.mac1609_4 RXTXLostPackets 0
scalar RSUExampleScenario.node[42].nic.mac1609_4 TotalLostPackets 57
scalar RSUExampleScenario.node[42].nic.mac1609_4 DroppedPacketsInMac 0
scalar RSUExampleScenario.node[42].nic.mac1609_4 TooLittleTime 0
scalar RSUExampleScenario.node[42].nic.mac1609_4 TimesIntoBackoff 298
scalar RSUExampleScenario.node[42].nic.mac1609_4 SlotsBackoff 449
scalar RSUExampleScenario.node[42].nic.mac1609_4 NumInternalContention 0
scalar RSUExampleScenario.node[42].nic.mac1609_4 totalBusyTime 0.697677
scalar RSUExampleScenario.node[42].nic.mac1609_4 retriesExceeded:count 0
attr source org_car2x_veins_modules_mac_sigRetriesExceeded
scalar RSUExampleScenario.node[42].nic.mac1609_4 sentAcks:count 0
attr source org_car2x_veins_modules_mac_sigSentAck
scalar RSUExampleScenario.node[42].nic.mac1609_4 sentPackets:count 149
attr source org_car2x_veins_modules_mac_sigSentPacket
scalar RSUExampleScenario.node[42].nic.mac1609_4 collisions:count 0
attr source org_car2x_veins_modules_mac_sigCollision
scalar RSUExampleScenario.node[42].nic.mac1609_4 channelBusy:timeavg 0.046823959731541
attr source org_car2x_veins_modules_mac_sigChannelBusy
scalar RSUExampleScenario.node[42].veinsmobility startTime 60.1
scalar RSUExampleScenario.node[42].veinsmobility totalTime 14.9
scalar RSUExampleScenario.node[42].veinsmobility stopTime 75
scalar RSUExampleScenario.node[42].veinsmobility minSpeed 8.23960815036
scalar RSUExampleScenario.node[42].veinsmobility maxSpeed 10.493215233601
scalar RSUExampleScenario.node[42].veinsmobility totalDistance 144.88039882693
scalar RSUExampleScenario.node[42].veinsmobility totalCO2Emission 33.140809089014
scalar RSUExampleScenario.node[43].appl generatedWSMs 0
scalar RSUExampleScenario.node[43].appl receivedWSMs 0
scalar RSUExampleScenario.node[43].appl generatedBSMs 111
scalar RSUExampleScenario.node[43].appl receivedBSMs 4929
scalar RSUExampleScenario.node[43].appl generatedWSAs 0
scalar RSUExampleScenario.node[43].appl receivedWSAs 0
scalar RSUExampleScenario.node[43].nic.phy80211p busyTime 0.046799999999998
scalar RSUExampleScenario.node[43].nic.mac1609_4 ReceivedUnicastPackets 0
scalar RSUExampleScenario.node[43].nic.mac1609_4 ReceivedBroadcasts 4929
scalar RSUExampleScenario.node[43].nic.mac1609_4 SentPackets 111
scalar RSUExampleScenario.node[43].nic.mac1609_4 SentAcknowledgements 0
scalar RSUExampleScenario.node[43].nic.mac1609_4 RetriesExceeded 0
scalar RSUExampleScenario.node[43].nic.mac1609_4 SNIRLostPackets 66
scalar RSUExampleScenario.node[43].nic.mac1609_4 RXTXLostPackets 0
scalar RSUExampleScenario.node[43].nic.mac1609_4 TotalLostPackets 66
scalar RSUExampleScenario.node[43].nic.mac1609_4 DroppedPacketsInMac 0
scalar RSUExampleScenario.node[43].nic.mac1609_4 TooLittleTime 0
scalar RSUExampleScenario.node[43].nic.mac1609_4 TimesIntoBackoff 111
scalar RSUExampleScenario.node[43].nic.mac1609_4 SlotsBackoff 156
scalar RSUExampleScenario.node[43].nic.mac1609_4 NumInternalContention 0
scalar RSUExampleScenario.node[43].nic.mac1609_4 totalBusyTime 0.527703
scalar RSUExampleScenario.node[43].nic.mac1609_4 retriesExceeded:count 0
attr source org_car2x_veins_modules_mac_sigRetriesExceeded
scalar RSUExampleScenario.node[43].nic.mac1609_4 sentAcks:count 0
attr source org_car2x_veins_modules_mac_sigSentAck
scalar RSUExampleScenario.node[43].nic.mac1609_4 sentPackets:count 111
attr source org_car2x_veins_modules_mac_sigSentPacket
scalar RSUExampleScenario.node[43].nic.mac1609_4 collisions:count 0
attr source org_car2x_veins_modules_mac_sigCollision
scalar RSUExampleScenario.node[43].nic.mac1609_4 channelBusy:timeavg 0.047540810810809
attr source org_car2x_veins_modules_mac_sigChannelBusy
scalar RSUExampleScenario.node[43].veinsmobility startTime 63.9
scalar RSUExampleScenario.node[43].veinsmobility totalTime 11.1
scalar RSUExampleScenario.node[43].veinsmobility stopTime 75
scalar RSUExampleScenario.node[43].veinsmobility minSpeed 0.59139074725647
scalar RSUExampleScenario.node[43].veinsmobility maxSpeed 3.280015893065
scalar RSUExampleScenario.node[43].veinsmobility totalDistance 21.758717266118
scalar RSUExampleScenario.node[43].veinsmobility totalCO2Emission 14.858731047777
scalar RSUExampleScenario.node[44].appl generatedWSMs 0
scalar RSUExampleScenario.node[44].appl receivedWSMs 0
scalar RSUExampleScenario.node[44].appl generatedBSMs 99
scalar RSUExampleScenario.node[44].appl receivedBSMs 4446
scalar RSUExampleScenario.node[44].appl generatedWSAs 0
scalar RSUExampleScenario.node[44].appl receivedWSAs 0
scalar RSUExampleScenario.node[44].nic.phy80211p busyTime 0.046705454545453
scalar RSUExampleScenario.node[44].nic.mac1609_4 ReceivedUnicastPackets 0
scalar RSUExampleScenario.node[44].nic.mac1609_4 ReceivedBroadcasts 4446
scalar RSUExampleScenario.node[44].nic.mac1609_4 SentPackets 99
scalar RSUExampleScenario.node[44].nic.mac1609_4 SentAcknowledgements 0
scalar RSUExampleScenario.node[44].nic.mac1609_4 RetriesExceeded 0
scalar RSUExampleScenario.node[44].nic.mac1609_4 SNIRLostPackets 0
scalar RSUExampleScenario.node[44].nic.mac1609_4 RXTXLostPackets 33
scalar RSUExampleScenario.node[44].nic.mac1609_4 TotalLostPackets 33
scalar RSUExampleScenario.node[44].nic.mac1609_4 DroppedPacketsInMac 0
scalar RSUExampleScenario.node[44].nic.mac1609_4 TooLittleTime 0
scalar RSUExampleScenario.node[44].nic.mac1609_4 TimesIntoBackoff 99
scalar RSUExampleScenario.node[44].nic.mac1609_4 SlotsBackoff 170
scalar RSUExampleScenario.node[44].nic.mac1609_4 NumInternalContention 0
scalar RSUExampleScenario.node[44].nic.mac1609_4 totalBusyTime 0.472779
scalar RSUExampleScenario.node[44].nic.mac1609_4 retriesExceeded:count 0
attr source org_car2x_veins_modules_mac_sigRetriesExceeded
scalar RSUExampleScenario.node[44].nic.mac1609_4 sentAcks:count 0
attr source org_car2x_veins_modules_mac_sigSentAck
scalar RSUExampleScenario.node[44].nic.mac1609_4 sentPackets:count 99
attr source org_car2x_veins_modules_mac_sigSentPacket
scalar RSUExampleScenario.node[44].nic.mac1609_4 collisions:count 0
attr source org_car2x_veins_modules_mac_sigCollision
scalar RSUExampleScenario.node[44].nic.mac1609_4 channelBusy:timeavg 0.047755454545453
attr source org_car2x_veins_modules_mac_sigChannelBusy
scalar RSUExampleScenario.node[44].veinsmobility startTime 65.1
scalar RSUExampleScenario.node[44].veinsmobility totalTime 9.9
scalar RSUExampleScenario.node[44].veinsmobility stopTime 75
scalar RSUExampleScenario.node[44].veinsmobility minSpeed 8.7110104712111
scalar RSUExampleScenario.node[44].veinsmobility maxSpeed 8.9547859890911
scalar RSUExampleScenario.node[44].veinsmobility totalDistance 87.515475052526
scalar RSUExampleScenario.node[44].veinsmobility totalCO2Emission 22.914195798625
scalar RSUExampleScenario.node[45].appl generatedWSMs 0
scalar RSUExampleScenario.node[45].appl receivedWSMs 0
scalar RSUExampleScenario.node[45].appl generatedBSMs 60
scalar RSUExampleScenario.node[45].appl receivedBSMs 2721
scalar RSUExampleScenario.node[45].appl generatedWSAs 0
scalar RSUExampleScenario.node[45].appl receivedWSAs 0
scalar RSUExampleScenario.node[45].nic.phy80211p busyTime 0.047891999999999
scalar RSUExampleScenario.node[45].nic.mac1609_4 ReceivedUnicastPackets 0
scalar RSUExampleScenario.node[45].nic.mac1609_4 ReceivedBroadcasts 2721
scalar RSUExampleScenario.node[45].nic.mac1609_4 SentPackets 60
scalar RSUExampleScenario.node[45].nic.mac1609_4 SentAcknowledgements 0
scalar RSUExampleScenario.node[45].nic.mac1609_4 RetriesExceeded 0
scalar RSUExampleScenario.node[45].nic.mac1609_4 SNIRLostPackets 42
scalar RSUExampleScenario.node[45].nic.mac1609_4 RXTXLostPackets 0
scalar RSUExampleScenario.node[45].nic.mac1609_4 TotalLostPackets 42
scalar RSUExampleScenario.node[45].nic.mac1609_4 DroppedPacketsInMac 0
scalar RSUExampleScenario.node[45].nic.mac1609_4 TooLittleTime 0
scalar RSUExampleScenario.node[45].nic.mac1609_4 TimesIntoBackoff 60
scalar RSUExampleScenario.node[45].nic.mac1609_4 SlotsBackoff 91
scalar RSUExampleScenario.node[45].nic.mac1609_4 NumInternalContention 0
scalar RSUExampleScenario.node[45].nic.mac1609_4 totalBusyTime 0.291468
scalar RSUExampleScenario.node[45].nic.mac1609_4 retriesExceeded:count 0
attr source org_car2x_veins_modules_mac_sigRetriesExceeded
scalar RSUExampleScenario.node[45].nic.mac1609_4 sentAcks:count 0
attr source org_car2x_veins_modules_mac_sigSentAck
scalar RSUExampleScenario.node[45].nic.mac1609_4 sentPackets:count 60
attr source org_car2x_veins_modules_mac_sigSentPacket
scalar RSUExampleScenario.node[45].nic.mac1609_4 collisions:count 0
attr source org_car2x_veins_modules_mac_sigCollision
scalar RSUExampleScenario.node[45].nic.mac1609_4 channelBusy:timeavg 0.048577999999999
attr source org_car2x_veins_modules_mac_sigChannelBusy
scalar RSUExampleScenario.node[45].veinsmobility startTime 69
scalar RSUExampleScenario.node[45].veinsmobility totalTime 6
scalar RSUExampleScenario.node[45].veinsmobility stopTime 75
scalar RSUExampleScenario.node[45].veinsmobility minSpeed 0.42906846092925
scalar RSUExampleScenario.node[45].veinsmobility maxSpeed 3.0351997455052
scalar RSUExampleScenario.node[45].veinsmobility totalDistance 11.387102127816
scalar RSUExampleScenario.node[45].veinsmobility totalCO2Emission 8.5169656752508
scalar RSUExampleScenario.node[46].appl generatedWSMs 0
scalar RSUExampleScenario.node[46].appl receivedWSMs 0
scalar RSUExampleScenario.node[46].appl generatedBSMs 49
scalar RSUExampleScenario.node[46].appl receivedBSMs 2252
scalar RSUExampleScenario.node[46].appl generatedWSAs 0
scalar RSUExampleScenario.node[46].appl receivedWSAs 0
scalar RSUExampleScenario.node[46].nic.phy80211p busyTime 0.048137142857142
scalar RSUExampleScenario.node[46].nic.mac1609_4 ReceivedUnicastPackets 0
scalar RSUExampleScenario.node[46].nic.mac1609_4 ReceivedBroadcasts 2252
scalar RSUExampleScenario.node[46].nic.mac1609_4 SentPackets 49
scalar RSUExampleScenario.node[46].nic.mac1609_4 SentAcknowledgements 0
scalar RSUExampleScenario.node[46].nic.mac1609_4 RetriesExceeded 0
scalar RSUExampleScenario.node[46].nic.mac1609_4 SNIRLostPackets 16
scalar RSUExampleScenario.node[46].nic.mac1609_4 RXTXLostPackets 0
scalar RSUExampleScenario.node[46].nic.mac1609_4 TotalLostPackets 16
scalar RSUExampleScenario.node[46].nic.mac1609_4 DroppedPacketsInMac 0
scalar RSUExampleScenario.node[46].nic.mac1609_4 TooLittleTime 0
scalar RSUExampleScenario.node[46].nic.mac1609_4 TimesIntoBackoff 49
scalar RSUExampleScenario.node[46].nic.mac1609_4 SlotsBackoff 76
scalar RSUExampleScenario.node[46].nic.mac1609_4 NumInternalContention 0
scalar RSUExampleScenario.node[46].nic.mac1609_4 totalBusyTime 0.239353
scalar RSUExampleScenario.node[46].nic.mac1609_4 retriesExceeded:count 0
attr source org_car2x_veins_modules_mac_sigRetriesExceeded
scalar RSUExampleScenario.node[46].nic.mac1609_4 sentAcks:count 0
attr source org_car2x_veins_modules_mac_sigSentAck
scalar RSUExampleScenario.node[46].nic.mac1609_4 sentPackets:count 49
attr source org_car2x_veins_modules_mac_sigSentPacket
scalar RSUExampleScenario.node[46].nic.mac1609_4 collisions:count 0
attr source org_car2x_veins_modules_mac_sigCollision
scalar RSUExampleScenario.node[46].nic.mac1609_4 channelBusy:timeavg 0.048847551020407
attr source org_car2x_veins_modules_mac_sigChannelBusy
scalar RSUExampleScenario.node[46].veinsmobility startTime 70.1
scalar RSUExampleScenario.node[46].veinsmobility totalTime 4.9
scalar RSUExampleScenario.node[46].veinsmobility stopTime 75
scalar RSUExampleScenario.node[46].veinsmobility minSpeed 10.748406774385
scalar RSUExampleScenario.node[46].veinsmobility maxSpeed 10.989485401147
scalar RSUExampleScenario.node[46].veinsmobility totalDistance 53.25012429473
scalar RSUExampleScenario.node[46].veinsmobility totalCO2Emission 11.697059896339
scalar RSUExampleScenario.node[47].appl generatedWSMs 0
scalar RSUExampleScenario.node[47].appl receivedWSMs 0
scalar RSUExampleScenario.node[47].appl generatedBSMs 14
scalar RSUExampleScenario.node[47].appl receivedBSMs 654
scalar RSUExampleScenario.node[47].appl generatedWSAs 0
scalar RSUExampleScenario.node[47].appl receivedWSAs 0
scalar RSUExampleScenario.node[47].nic.phy80211p busyTime 0.04888
scalar RSUExampleScenario.node[47].nic.mac1609_4 ReceivedUnicastPackets 0
scalar RSUExampleScenario.node[47].nic.mac1609_4 ReceivedBroadcasts 654
scalar RSUExampleScenario.node[47].nic.mac1609_4 SentPackets 14
scalar RSUExampleScenario.node[47].nic.mac1609_4 SentAcknowledgements 0
scalar RSUExampleScenario.node[47].nic.mac1609_4 RetriesExceeded 0
scalar RSUExampleScenario.node[47].nic.mac1609_4 SNIRLostPackets 4
scalar RSUExampleScenario.node[47].nic.mac1609_4 RXTXLostPackets 0
scalar RSUExampleScenario.node[47].nic.mac1609_4 TotalLostPackets 4
scalar RSUExampleScenario.node[47].nic.mac1609_4 DroppedPacketsInMac 0
scalar RSUExampleScenario.node[47].nic.mac1609_4 TooLittleTime 0
scalar RSUExampleScenario.node[47].nic.mac1609_4 TimesIntoBackoff 14
scalar RSUExampleScenario.node[47].nic.mac1609_4 SlotsBackoff 24
scalar RSUExampleScenario.node[47].nic.mac1609_4 NumInternalContention 0
scalar RSUExampleScenario.node[47].nic.mac1609_4 totalBusyTime 0.069694
scalar RSUExampleScenario.node[47].nic.mac1609_4 retriesExceeded:count 0
attr source org_car2x_veins_modules_mac_sigRetriesExceeded
scalar RSUExampleScenario.node[47].nic.mac1609_4 sentAcks:count 0
attr source org_car2x_veins_modules_mac_sigSentAck
scalar RSUExampleScenario.node[47].nic.mac1609_4 sentPackets:count 14
attr source org_car2x_veins_modules_mac_sigSentPacket
scalar RSUExampleScenario.node[47].nic.mac1609_4 collisions:count 0
attr source org_car2x_veins_modules_mac_sigCollision
scalar RSUExampleScenario.node[47].nic.mac1609_4 channelBusy:timeavg 0.049781428571429
attr source org_car2x_veins_modules_mac_sigChannelBusy
scalar RSUExampleScenario.node[47].veinsmobility startTime 73.6
scalar RSUExampleScenario.node[47].veinsmobility totalTime 1.4
scalar RSUExampleScenario.node[47].veinsmobility stopTime 75
scalar RSUExampleScenario.node[47].veinsmobility minSpeed 0.68049837380904
scalar RSUExampleScenario.node[47].veinsmobility maxSpeed 2.0554890191445
scalar RSUExampleScenario.node[47].veinsmobility totalDistance 2.0927499602283
scalar RSUExampleScenario.node[47].veinsmobility totalCO2Emission 1.9964835001946

