version 2
run Configurable_WiredAndWirelessHosts-0-20250826-20:48:05-6941
attr configname Configurable_WiredAndWirelessHosts
attr datetime 20250826-20:48:05
attr experiment Configurable_WiredAndWirelessHosts
attr inifile omnetpp.ini
attr iterationvars ""
attr iterationvarsf ""
attr measurement ""
attr network WiredAndWirelessHostsWithAP
attr processid 6941
attr repetition 0
attr replication #0
attr resultdir results
attr runnumber 0
attr seedset 210041226
param **.constraintAreaMinX 0m
param **.constraintAreaMinY 0m
param **.constraintAreaMinZ 0m
param **.constraintAreaMaxX 400m
param **.constraintAreaMaxY 400m
param **.constraintAreaMaxZ 0m
param **.initialZ 0m
param *.visualizer.packetDropVisualizer.displayPacketDrops true
param *.visualizer.mediumVisualizer.displayCommunicationRanges true
param *.visualizer.mediumVisualizer.displayInterferenceRanges true
param **.bitrate 2Mbps
param **.radio.transmitter.power 20mW
param **.radio.receiver.sensitivity -85dBm
param **.radio.receiver.snirThreshold 4dB
param **.radio.receiver.bandwidth "22 MHz"
param **.radioMedium.analogModel.typename "\"ScalarAnalogModel\""
param **.errorModel.typename "\"Ieee80211YansErrorModel\""
param **.radioMedium.backgroundNoise.power -110dBm
param **.hasUdp true
param **.*Host*.numApps 1
param **.sinkNode.udp.typename "\"Udp\""
param **.sinkNode.numApps 1
param **.sinkNode.app[0].typename "\"UdpSink\""
param **.sinkNode.app[0].localPort 1000
param **.*Host[*].app[0].typename "\"UdpBasicApp\""
param **.*Host[*].app[0].destAddresses "\"sinkNode\""
param **.*Host[*].app[*].destPort 1000
param **.*Host[*].app[*].messageLength 100B
param **.*Host[*].app[*].sendInterval 1s
param **.*Host[*].wlan[*].mac.dcf.channelAccess.pendingQueue.packetCapacity 100
param **.*Host[*].wlan[*].mac.dcf.channelAccess.cwMax 1023
param **.*Host[*].wlan[*].mac.dcf.channelAccess.cwMin 15
param **.wlan[*].mac.dcf.recoveryProcedure.shortRetryLimit 7
param **.wlan[*].mac.dcf.rtsPolicy.rtsThreshold 1024B
param WiredAndWirelessHostsWithAP.num_wireless 30
param WiredAndWirelessHostsWithAP.num_wired 0

scalar WiredAndWirelessHostsWithAP.radioMedium.propagation "Arrival computation count" 163080
scalar WiredAndWirelessHostsWithAP.radioMedium "transmission count" 5436
scalar WiredAndWirelessHostsWithAP.radioMedium "signal send count" 163080
scalar WiredAndWirelessHostsWithAP.radioMedium "reception computation count" 162180
scalar WiredAndWirelessHostsWithAP.radioMedium "interference computation count" 405173
scalar WiredAndWirelessHostsWithAP.radioMedium "reception decision computation count" 110688
scalar WiredAndWirelessHostsWithAP.radioMedium "listening decision computation count" 167599
scalar WiredAndWirelessHostsWithAP.radioMedium "reception cache hit" 89.124749543344
attr unit %
scalar WiredAndWirelessHostsWithAP.radioMedium "interference cache hit" 66.666666666667
attr unit %
scalar WiredAndWirelessHostsWithAP.radioMedium "noise cache hit" 0
attr unit %
scalar WiredAndWirelessHostsWithAP.radioMedium "snir cache hit" 50
attr unit %
scalar WiredAndWirelessHostsWithAP.radioMedium "reception decision cache hit" 50
attr unit %
scalar WiredAndWirelessHostsWithAP.radioMedium "reception result cache hit" 0
attr unit %
scalar WiredAndWirelessHostsWithAP.wirelessHost[0].lo[0].lo rcvdPkFromHl:count 0
attr interpolationmode none
attr source packetReceivedFromUpper
attr title "packets received from higher layer, count"
scalar WiredAndWirelessHostsWithAP.wirelessHost[0].lo[0].lo rcvdPkFromHl:sum(packetBytes) 0
attr interpolationmode none
attr source packetReceivedFromUpper
attr title "packets received from higher layer, sum(packetBytes)"
scalar WiredAndWirelessHostsWithAP.wirelessHost[0].lo[0].lo passedUpPk:count 0
attr interpolationmode none
attr source packetSentToUpper
attr title "packets passed to higher layer, count"
scalar WiredAndWirelessHostsWithAP.wirelessHost[0].lo[0].lo passedUpPk:sum(packetBytes) 0
attr interpolationmode none
attr source packetSentToUpper
attr title "packets passed to higher layer, sum(packetBytes)"
scalar WiredAndWirelessHostsWithAP.wirelessHost[0].wlan[0].agent dropConfirm:count 0
attr title "dropped confirms, count"
scalar WiredAndWirelessHostsWithAP.wirelessHost[0].wlan[0].agent acceptConfirm:count 3
attr title "accepted confirms, count"
scalar WiredAndWirelessHostsWithAP.wirelessHost[0].wlan[0].agent sentRequest:count 3
attr title "sent requests, count"
scalar WiredAndWirelessHostsWithAP.wirelessHost[0].wlan[0].mac.dcf.channelAccess.pendingQueue packetPopped:count 45
attr interpolationmode none
attr title "packet popped, count"
scalar WiredAndWirelessHostsWithAP.wirelessHost[0].wlan[0].mac.dcf.channelAccess.pendingQueue packetPopped:sum(packetBytes) 6760
attr interpolationmode none
attr title "packet popped, sum(packetBytes)"
statistic WiredAndWirelessHostsWithAP.wirelessHost[0].wlan[0].mac.dcf.channelAccess.pendingQueue queueingTime:histogram
field count 45
field mean 5.2953131844444e-05
field stddev 0.00029088319214778
field min 0
field max 0.001934890933
field sum 0.002382890933
field sqrsum 3.8491549226056e-06
attr interpolationmode none
attr source queueingTime(packetPopped)
attr title "queueing times, histogram"
attr unit s
bin	-inf	0
bin	0	42
bin	5e-05	0
bin	0.0001	0
bin	0.00015	1
bin	0.0002	0
bin	0.00025	1
bin	0.0003	0
bin	0.00035	0
bin	0.0004	0
bin	0.00045	0
bin	0.0005	0
bin	0.00055	0
bin	0.0006	0
bin	0.00065	0
bin	0.0007	0
bin	0.00075	0
bin	0.0008	0
bin	0.00085	0
bin	0.0009	0
bin	0.00095	0
bin	0.001	0
bin	0.00105	0
bin	0.0011	0
bin	0.00115	0
bin	0.0012	0
bin	0.00125	0
bin	0.0013	0
bin	0.00135	0
bin	0.0014	0
bin	0.00145	0
bin	0.0015	0
bin	0.00155	0
bin	0.0016	0
bin	0.00165	0
bin	0.0017	0
bin	0.00175	0
bin	0.0018	0
bin	0.00185	0
bin	0.0019	1
bin	0.00195	0
bin	0.002	0
bin	0.00205	0
bin	0.0021	0
bin	0.00215	0
bin	0.0022	0
bin	0.00225	0
bin	0.0023	0
bin	0.00235	0
bin	0.0024	0
bin	0.00245	0
scalar WiredAndWirelessHostsWithAP.wirelessHost[0].wlan[0].mac.dcf.channelAccess.pendingQueue queueLength:max 1
attr interpolationmode sample-hold
attr source "count(packetPushed) - count(packetPopped) - count(packetRemoved) - count(packetDropped)"
attr title "queue length, max"
scalar WiredAndWirelessHostsWithAP.wirelessHost[0].wlan[0].mac.dcf.channelAccess.pendingQueue queueLength:timeavg 5.9883687071032e-05
attr interpolationmode sample-hold
attr source "count(packetPushed) - count(packetPopped) - count(packetRemoved) - count(packetDropped)"
attr title "queue length, timeavg"
scalar WiredAndWirelessHostsWithAP.wirelessHost[0].wlan[0].mac.dcf.channelAccess.pendingQueue packetPushed:count 45
attr interpolationmode none
attr title "packet pushed, count"
scalar WiredAndWirelessHostsWithAP.wirelessHost[0].wlan[0].mac.dcf.channelAccess.pendingQueue packetPushed:sum(packetBytes) 6760
attr interpolationmode none
attr title "packet pushed, sum(packetBytes)"
scalar WiredAndWirelessHostsWithAP.wirelessHost[0].wlan[0].mac.dcf.channelAccess.pendingQueue packetDropQueueOverflow:count 0
attr interpolationmode none
attr source packetDropReasonIsQueueOverflow(packetDropped)
attr title "packet drops: queue overflow, count"
scalar WiredAndWirelessHostsWithAP.wirelessHost[0].wlan[0].mac.dcf.channelAccess.pendingQueue packetDropQueueOverflow:sum(packetBytes) 0
attr interpolationmode none
attr source packetDropReasonIsQueueOverflow(packetDropped)
attr title "packet drops: queue overflow, sum(packetBytes)"
scalar WiredAndWirelessHostsWithAP.wirelessHost[0].wlan[0].mac.dcf.channelAccess.pendingQueue packetRemoved:count 0
attr interpolationmode none
attr title "packets removed, count"
scalar WiredAndWirelessHostsWithAP.wirelessHost[0].wlan[0].mac.dcf.channelAccess.pendingQueue packetRemoved:sum(packetBytes) 0
attr interpolationmode none
attr title "packets removed, sum(packetBytes)"
statistic WiredAndWirelessHostsWithAP.wirelessHost[0].wlan[0].mac.dcf.channelAccess.inProgressFrames queueingTime:histogram
field count 44
field mean 0.021394368229273
field stddev 0.015259322901075
field min 3.8e-05
field max 0.057911708732
field sum 0.941352202088
field sqrsum 0.030152053867076
attr interpolationmode none
attr source queueingTime(packetDequeued)
attr title "queueing times, histogram"
bin	-inf	0
bin	0	4
bin	0.001	1
bin	0.002	0
bin	0.003	1
bin	0.004	1
bin	0.005	0
bin	0.006	0
bin	0.007	0
bin	0.008	3
bin	0.009	3
bin	0.01	1
bin	0.011	1
bin	0.012	1
bin	0.013	1
bin	0.014	1
bin	0.015	0
bin	0.016	1
bin	0.017	2
bin	0.018	0
bin	0.019	1
bin	0.02	1
bin	0.021	0
bin	0.022	1
bin	0.023	5
bin	0.024	1
bin	0.025	0
bin	0.026	1
bin	0.027	1
bin	0.028	0
bin	0.029	1
bin	0.03	0
bin	0.031	0
bin	0.032	0
bin	0.033	0
bin	0.034	0
bin	0.035	1
bin	0.036	0
bin	0.037	2
bin	0.038	0
bin	0.039	1
bin	0.04	0
bin	0.041	1
bin	0.042	2
bin	0.043	1
bin	0.044	0
bin	0.045	1
bin	0.046	0
bin	0.047	0
bin	0.048	0
bin	0.049	0
bin	0.05	1
bin	0.051	0
bin	0.052	0
bin	0.053	0
bin	0.054	0
bin	0.055	0
bin	0.056	0
bin	0.057	1
bin	0.058	0
bin	0.059	0
bin	0.06	0
bin	0.061	0
bin	0.062	0
bin	0.063	0
bin	0.064	0
bin	0.065	0
bin	0.066	0
bin	0.067	0
bin	0.068	0
bin	0.069	0
bin	0.07	0
bin	0.071	0
bin	0.072	0
bin	0.073	0
scalar WiredAndWirelessHostsWithAP.wirelessHost[0].wlan[0].mac.dcf.channelAccess.inProgressFrames queueLength:max 1
attr interpolationmode sample-hold
attr source "count(packetEnqueued) - count(packetDequeued)"
attr title "queue length, max"
scalar WiredAndWirelessHostsWithAP.wirelessHost[0].wlan[0].mac.dcf.channelAccess.inProgressFrames queueLength:timeavg 0.02365682789455
attr interpolationmode sample-hold
attr source "count(packetEnqueued) - count(packetDequeued)"
attr title "queue length, timeavg"
scalar WiredAndWirelessHostsWithAP.wirelessHost[0].wlan[0].mac.dcf.channelAccess.contention channelAccessGranted:count 104
attr title "channel access granted, count"
scalar WiredAndWirelessHostsWithAP.wirelessHost[0].wlan[0].mac.dcf.channelAccess.contention stateChanged:count 15822
attr interpolationmode none
attr title "contention state changed, count"
scalar WiredAndWirelessHostsWithAP.wirelessHost[0].wlan[0].mac.dcf.channelAccess channelOwnershipChanged:count 207
attr interpolationmode sample-hold
attr title "channel ownership, count"
scalar WiredAndWirelessHostsWithAP.wirelessHost[0].wlan[0].mac.dcf.originatorMacDataService packetAggregated:count 0
attr title "packets aggregated, count"
scalar WiredAndWirelessHostsWithAP.wirelessHost[0].wlan[0].mac.dcf.originatorMacDataService packetFragmented:count 0
attr title "packets fragmented, count"
scalar WiredAndWirelessHostsWithAP.wirelessHost[0].wlan[0].mac.dcf.recipientMacDataService packetDeaggregated:count 0
attr title "packets deaggregated, count"
scalar WiredAndWirelessHostsWithAP.wirelessHost[0].wlan[0].mac.dcf.recipientMacDataService packetDefragmented:count 463
attr title "packets defragmented, count"
scalar WiredAndWirelessHostsWithAP.wirelessHost[0].wlan[0].mac.dcf.recipientMacDataService packetDropDuplicateDetected:count 0
attr interpolationmode none
attr source packetDropReasonIsDuplicateDetected(packetDropped)
attr title "packet drops: duplicate detected, count"
scalar WiredAndWirelessHostsWithAP.wirelessHost[0].wlan[0].mac.dcf.recipientMacDataService packetDropDuplicateDetected:sum(packetBytes) 0
attr interpolationmode none
attr source packetDropReasonIsDuplicateDetected(packetDropped)
attr title "packet drops: duplicate detected, sum(packetBytes)"
scalar WiredAndWirelessHostsWithAP.wirelessHost[0].wlan[0].mac.dcf.recoveryProcedure retryLimitReached:count 0
attr title "retry limit reached, count"
scalar WiredAndWirelessHostsWithAP.wirelessHost[0].wlan[0].mac.dcf frameSequenceFinished:count 103
attr title "finished frame sequences, count"
statistic WiredAndWirelessHostsWithAP.wirelessHost[0].wlan[0].mac.dcf frameSequenceDuration:histogram
field count 103
field mean 0.0010338087321165
field stddev 0.00020619043305077
field min 3.8e-05
field max 0.001106379056
field sum 0.106482299408
field sqrsum 0.00011441880940136
attr source frameSequenceDuration(frameSequenceFinished)
attr title "frame sequence durations, histogram"
bin	-inf	0
bin	0	0
bin	2e-05	1
bin	4e-05	0
bin	6e-05	0
bin	8e-05	3
bin	0.0001	0
bin	0.00012	0
bin	0.00014	0
bin	0.00016	0
bin	0.00018	0
bin	0.0002	0
bin	0.00022	0
bin	0.00024	0
bin	0.00026	0
bin	0.00028	0
bin	0.0003	0
bin	0.00032	0
bin	0.00034	0
bin	0.00036	0
bin	0.00038	0
bin	0.0004	0
bin	0.00042	0
bin	0.00044	0
bin	0.00046	0
bin	0.00048	0
bin	0.0005	0
bin	0.00052	0
bin	0.00054	0
bin	0.00056	0
bin	0.00058	0
bin	0.0006	0
bin	0.00062	0
bin	0.00064	0
bin	0.00066	2
bin	0.00068	0
bin	0.0007	1
bin	0.00072	0
bin	0.00074	0
bin	0.00076	0
bin	0.00078	0
bin	0.0008	0
bin	0.00082	0
bin	0.00084	0
bin	0.00086	0
bin	0.00088	0
bin	0.0009	0
bin	0.00092	0
bin	0.00094	0
bin	0.00096	0
bin	0.00098	0
bin	0.001	0
bin	0.00102	0
bin	0.00104	0
bin	0.00106	57
bin	0.00108	0
bin	0.0011	39
bin	0.00112	0
bin	0.00114	0
bin	0.00116	0
bin	0.00118	0
bin	0.0012	0
bin	0.00122	0
bin	0.00124	0
bin	0.00126	0
bin	0.00128	0
bin	0.0013	0
bin	0.00132	0
bin	0.00134	0
bin	0.00136	0
bin	0.00138	0
statistic WiredAndWirelessHostsWithAP.wirelessHost[0].wlan[0].mac.dcf frameSequenceNumPackets:histogram
field count 103
field mean 1.9902912621359
field stddev 0.09853292781643
field min 1
field max 2
field sum 205
field sqrsum 409
attr source frameSequenceNumPackets(frameSequenceFinished)
attr title "frame sequences: number of packets, histogram"
bin	-inf	0
bin	0	0
bin	1	1
bin	2	102
bin	3	0
scalar WiredAndWirelessHostsWithAP.wirelessHost[0].wlan[0].mac.dcf packetReceivedFromPeer:count 506
attr interpolationmode none
attr title "packets received, count"
scalar WiredAndWirelessHostsWithAP.wirelessHost[0].wlan[0].mac.dcf packetReceivedFromPeer:sum(packetBytes) 22820
attr interpolationmode none
attr title "packets received, sum(packetBytes)"
scalar WiredAndWirelessHostsWithAP.wirelessHost[0].wlan[0].mac.dcf packetReceivedFromPeerUnicast:count 48
attr interpolationmode none
attr source ieee80211Unicast(packetReceivedFromPeer)
attr title "packets received: unicast, count"
scalar WiredAndWirelessHostsWithAP.wirelessHost[0].wlan[0].mac.dcf packetReceivedFromPeerUnicast:sum(packetBytes) 836
attr interpolationmode none
attr source ieee80211Unicast(packetReceivedFromPeer)
attr title "packets received: unicast, sum(packetBytes)"
scalar WiredAndWirelessHostsWithAP.wirelessHost[0].wlan[0].mac.dcf packetReceivedFromPeerMulticast:count 458
attr interpolationmode none
attr source ieee80211Multicast(packetReceivedFromPeer)
attr title "packets received: multicast, count"
scalar WiredAndWirelessHostsWithAP.wirelessHost[0].wlan[0].mac.dcf packetReceivedFromPeerMulticast:sum(packetBytes) 21984
attr interpolationmode none
attr source ieee80211Multicast(packetReceivedFromPeer)
attr title "packets received: multicast, sum(packetBytes)"
scalar WiredAndWirelessHostsWithAP.wirelessHost[0].wlan[0].mac.dcf packetReceivedFromPeerBroadcast:count 458
attr interpolationmode none
attr source ieee80211Broadcast(packetReceivedFromPeer)
attr title "packets received: broadcast, count"
scalar WiredAndWirelessHostsWithAP.wirelessHost[0].wlan[0].mac.dcf packetReceivedFromPeerBroadcast:sum(packetBytes) 21984
attr interpolationmode none
attr source ieee80211Broadcast(packetReceivedFromPeer)
attr title "packets received: broadcast, sum(packetBytes)"
scalar WiredAndWirelessHostsWithAP.wirelessHost[0].wlan[0].mac.dcf packetReceivedFromPeerWithRetry:count 29
attr interpolationmode none
attr source ieee80211Retry(packetReceivedFromPeer)
attr title "packets received: with retry, count"
scalar WiredAndWirelessHostsWithAP.wirelessHost[0].wlan[0].mac.dcf packetReceivedFromPeerWithRetry:sum(packetBytes) 1856
attr interpolationmode none
attr source ieee80211Retry(packetReceivedFromPeer)
attr title "packets received: with retry, sum(packetBytes)"
scalar WiredAndWirelessHostsWithAP.wirelessHost[0].wlan[0].mac.dcf packetReceivedFromPeerWithoutRetry:count 477
attr interpolationmode none
attr source ieee80211NotRetry(packetReceivedFromPeer)
attr title "packets received: without retry, count"
scalar WiredAndWirelessHostsWithAP.wirelessHost[0].wlan[0].mac.dcf packetReceivedFromPeerWithoutRetry:sum(packetBytes) 20964
attr interpolationmode none
attr source ieee80211NotRetry(packetReceivedFromPeer)
attr title "packets received: without retry, sum(packetBytes)"
scalar WiredAndWirelessHostsWithAP.wirelessHost[0].wlan[0].mac.dcf packetSentToPeer:count 108
attr interpolationmode none
attr title "packets sent, count"
scalar WiredAndWirelessHostsWithAP.wirelessHost[0].wlan[0].mac.dcf packetSentToPeer:sum(packetBytes) 16142
attr interpolationmode none
attr title "packets sent, sum(packetBytes)"
scalar WiredAndWirelessHostsWithAP.wirelessHost[0].wlan[0].mac.dcf packetSentToPeerUnicast:count 107
attr interpolationmode none
attr source ieee80211Unicast(packetSentToPeer)
attr title "packets sent: unicast, count"
scalar WiredAndWirelessHostsWithAP.wirelessHost[0].wlan[0].mac.dcf packetSentToPeerUnicast:sum(packetBytes) 16110
attr interpolationmode none
attr source ieee80211Unicast(packetSentToPeer)
attr title "packets sent: unicast, sum(packetBytes)"
scalar WiredAndWirelessHostsWithAP.wirelessHost[0].wlan[0].mac.dcf packetSentToPeerMulticast:count 1
attr interpolationmode none
attr source ieee80211Multicast(packetSentToPeer)
attr title "packets sent: multicast, count"
scalar WiredAndWirelessHostsWithAP.wirelessHost[0].wlan[0].mac.dcf packetSentToPeerMulticast:sum(packetBytes) 32
attr interpolationmode none
attr source ieee80211Multicast(packetSentToPeer)
attr title "packets sent: multicast, sum(packetBytes)"
scalar WiredAndWirelessHostsWithAP.wirelessHost[0].wlan[0].mac.dcf packetSentToPeerBroadcast:count 1
attr interpolationmode none
attr source ieee80211Broadcast(packetSentToPeer)
attr title "packets sent: broadcast , count"
scalar WiredAndWirelessHostsWithAP.wirelessHost[0].wlan[0].mac.dcf packetSentToPeerBroadcast:sum(packetBytes) 32
attr interpolationmode none
attr source ieee80211Broadcast(packetSentToPeer)
attr title "packets sent: broadcast , sum(packetBytes)"
scalar WiredAndWirelessHostsWithAP.wirelessHost[0].wlan[0].mac.dcf packetSentToPeerWithRetry:count 59
attr interpolationmode none
attr source ieee80211Retry(packetSentToPeer)
attr title "packets sent: with retry, count"
scalar WiredAndWirelessHostsWithAP.wirelessHost[0].wlan[0].mac.dcf packetSentToPeerWithRetry:sum(packetBytes) 9476
attr interpolationmode none
attr source ieee80211Retry(packetSentToPeer)
attr title "packets sent: with retry, sum(packetBytes)"
scalar WiredAndWirelessHostsWithAP.wirelessHost[0].wlan[0].mac.dcf packetSentToPeerWithoutRetry:count 49
attr interpolationmode none
attr source ieee80211NotRetry(packetSentToPeer)
attr title "packets sent: without retry, count"
scalar WiredAndWirelessHostsWithAP.wirelessHost[0].wlan[0].mac.dcf packetSentToPeerWithoutRetry:sum(packetBytes) 6666
attr interpolationmode none
attr source ieee80211NotRetry(packetSentToPeer)
attr title "packets sent: without retry, sum(packetBytes)"
scalar WiredAndWirelessHostsWithAP.wirelessHost[0].wlan[0].mac.dcf packetDrop:count 2804
attr interpolationmode none
attr source packetDropped
attr title "packet drops, count"
scalar WiredAndWirelessHostsWithAP.wirelessHost[0].wlan[0].mac.dcf packetDrop:sum(packetBytes) 219810
attr interpolationmode none
attr source packetDropped
attr title "packet drops, sum(packetBytes)"
scalar WiredAndWirelessHostsWithAP.wirelessHost[0].wlan[0].mac.dcf packetDropNotAddressedToUs:count 2804
attr interpolationmode none
attr source packetDropReasonIsNotAddressedToUs(packetDropped)
attr title "packet drops: not addressed to us, count"
scalar WiredAndWirelessHostsWithAP.wirelessHost[0].wlan[0].mac.dcf packetDropNotAddressedToUs:sum(packetBytes) 219810
attr interpolationmode none
attr source packetDropReasonIsNotAddressedToUs(packetDropped)
attr title "packet drops: not addressed to us, sum(packetBytes)"
scalar WiredAndWirelessHostsWithAP.wirelessHost[0].wlan[0].mac.dcf packetDropQueueOverflow:count 0
attr interpolationmode none
attr source packetDropReasonIsQueueOverflow(packetDropped)
attr title "packet drops: queue overflow, count"
scalar WiredAndWirelessHostsWithAP.wirelessHost[0].wlan[0].mac.dcf packetDropQueueOverflow:sum(packetBytes) 0
attr interpolationmode none
attr source packetDropReasonIsQueueOverflow(packetDropped)
attr title "packet drops: queue overflow, sum(packetBytes)"
scalar WiredAndWirelessHostsWithAP.wirelessHost[0].wlan[0].mac.dcf packetDropRetryLimitReached:count 0
attr interpolationmode none
attr source packetDropReasonIsRetryLimitReached(packetDropped)
attr title "packet drops: retry limit reached, count"
scalar WiredAndWirelessHostsWithAP.wirelessHost[0].wlan[0].mac.dcf packetDropRetryLimitReached:sum(packetBytes) 0
attr interpolationmode none
attr source packetDropReasonIsRetryLimitReached(packetDropped)
attr title "packet drops: retry limit reached, sum(packetBytes)"
scalar WiredAndWirelessHostsWithAP.wirelessHost[0].wlan[0].mac.dcf linkBroken:count 0
attr interpolationmode none
attr title "link breaks, count"
scalar WiredAndWirelessHostsWithAP.wirelessHost[0].wlan[0].mac packetReceivedFromLower:count 3637
attr interpolationmode none
attr title "packets received from lower layer, count"
scalar WiredAndWirelessHostsWithAP.wirelessHost[0].wlan[0].mac packetReceivedFromLower:sum(packetBytes) 295258
attr interpolationmode none
attr title "packets received from lower layer, sum(packetBytes)"
scalar WiredAndWirelessHostsWithAP.wirelessHost[0].wlan[0].mac packetSentToLower:count 109
attr interpolationmode none
attr title "packets sent to lower layer, count"
scalar WiredAndWirelessHostsWithAP.wirelessHost[0].wlan[0].mac packetSentToLower:sum(packetBytes) 16306
attr interpolationmode none
attr title "packets sent to lower layer, sum(packetBytes)"
scalar WiredAndWirelessHostsWithAP.wirelessHost[0].wlan[0].mac packetReceivedFromUpper:count 41
attr interpolationmode none
attr title "packets received from upper layer, count"
scalar WiredAndWirelessHostsWithAP.wirelessHost[0].wlan[0].mac packetReceivedFromUpper:sum(packetBytes) 5476
attr interpolationmode none
attr title "packets received from upper layer, sum(packetBytes)"
scalar WiredAndWirelessHostsWithAP.wirelessHost[0].wlan[0].mac packetSentToUpper:count 30
attr interpolationmode none
attr title "packets sent to upper layer, count"
scalar WiredAndWirelessHostsWithAP.wirelessHost[0].wlan[0].mac packetSentToUpper:sum(packetBytes) 1098
attr interpolationmode none
attr title "packets sent to upper layer, sum(packetBytes)"
scalar WiredAndWirelessHostsWithAP.wirelessHost[0].wlan[0].mac packetDrop:count 3131
attr interpolationmode none
attr source packetDropped
attr title "packet drops, count"
scalar WiredAndWirelessHostsWithAP.wirelessHost[0].wlan[0].mac packetDrop:sum(packetBytes) 272438
attr interpolationmode none
attr source packetDropped
attr title "packet drops, sum(packetBytes)"
scalar WiredAndWirelessHostsWithAP.wirelessHost[0].wlan[0].mac packetDropIncorrectlyReceived:count 327
attr interpolationmode none
attr source packetDropReasonIsIncorrectlyReceived(packetDropped)
attr title "packet drops: incorrectly received, count"
scalar WiredAndWirelessHostsWithAP.wirelessHost[0].wlan[0].mac packetDropIncorrectlyReceived:sum(packetBytes) 52628
attr interpolationmode none
attr source packetDropReasonIsIncorrectlyReceived(packetDropped)
attr title "packet drops: incorrectly received, sum(packetBytes)"
scalar WiredAndWirelessHostsWithAP.wirelessHost[0].wlan[0].mac packetDropNotAddressedToUs:count 2804
attr interpolationmode none
attr source packetDropReasonIsNotAddressedToUs(packetDropped)
attr title "packet drops: not addressed to us, count"
scalar WiredAndWirelessHostsWithAP.wirelessHost[0].wlan[0].mac packetDropNotAddressedToUs:sum(packetBytes) 219810
attr interpolationmode none
attr source packetDropReasonIsNotAddressedToUs(packetDropped)
attr title "packet drops: not addressed to us, sum(packetBytes)"
scalar WiredAndWirelessHostsWithAP.wirelessHost[0].wlan[0].mac packetDropQueueOverflow:count 0
attr interpolationmode none
attr source packetDropReasonIsQueueOverflow(packetDropped)
attr title "packet drops: queue overflow, count"
scalar WiredAndWirelessHostsWithAP.wirelessHost[0].wlan[0].mac packetDropQueueOverflow:sum(packetBytes) 0
attr interpolationmode none
attr source packetDropReasonIsQueueOverflow(packetDropped)
attr title "packet drops: queue overflow, sum(packetBytes)"
scalar WiredAndWirelessHostsWithAP.wirelessHost[0].wlan[0].mac packetDropRetryLimitReached:count 0
attr interpolationmode none
attr source packetDropReasonIsRetryLimitReached(packetDropped)
attr title "packet drops: retry limit reached, count"
scalar WiredAndWirelessHostsWithAP.wirelessHost[0].wlan[0].mac packetDropRetryLimitReached:sum(packetBytes) 0
attr interpolationmode none
attr source packetDropReasonIsRetryLimitReached(packetDropped)
attr title "packet drops: retry limit reached, sum(packetBytes)"
scalar WiredAndWirelessHostsWithAP.wirelessHost[0].wlan[0].mac packetDropDuplicateDetected:count 0
attr interpolationmode none
attr source packetDropReasonIsDuplicateDetected(packetDropped)
attr title "packet drops: duplicate detected, count"
scalar WiredAndWirelessHostsWithAP.wirelessHost[0].wlan[0].mac packetDropDuplicateDetected:sum(packetBytes) 0
attr interpolationmode none
attr source packetDropReasonIsDuplicateDetected(packetDropped)
attr title "packet drops: duplicate detected, sum(packetBytes)"
scalar WiredAndWirelessHostsWithAP.wirelessHost[0].wlan[0].mac packetDropOther:count 0
attr interpolationmode none
attr source packetDropReasonIsOther(packetDropped)
attr title "packet drops: other, count"
scalar WiredAndWirelessHostsWithAP.wirelessHost[0].wlan[0].mac packetDropOther:sum(packetBytes) 0
attr interpolationmode none
attr source packetDropReasonIsOther(packetDropped)
attr title "packet drops: other, sum(packetBytes)"
scalar WiredAndWirelessHostsWithAP.wirelessHost[0].wlan[0].mac linkBroken:count 0
attr interpolationmode none
attr title "link breaks, count"
statistic WiredAndWirelessHostsWithAP.wirelessHost[0].wlan[0].radio radioChannel:histogram
field count 4
field mean 0
field stddev 0
field min 0
field max 0
field sum 0
field sqrsum 0
attr interpolationmode sample-hold
attr source radioChannelChanged
attr title "Radio channel, histogram"
bin	-inf	0
bin	-0.5	0
bin	-0.48	0
bin	-0.46	0
bin	-0.44	0
bin	-0.42	0
bin	-0.4	0
bin	-0.38	0
bin	-0.36	0
bin	-0.34	0
bin	-0.32	0
bin	-0.3	0
bin	-0.28	0
bin	-0.26	0
bin	-0.24	0
bin	-0.22	0
bin	-0.2	0
bin	-0.18	0
bin	-0.16	0
bin	-0.14	0
bin	-0.12	0
bin	-0.1	0
bin	-0.08	0
bin	-0.06	0
bin	-0.04	0
bin	-0.02	0
bin	0	4
bin	0.02	0
bin	0.04	0
bin	0.06	0
bin	0.08	0
bin	0.1	0
bin	0.12	0
bin	0.14	0
bin	0.16	0
bin	0.18	0
bin	0.2	0
bin	0.22	0
bin	0.24	0
bin	0.26	0
bin	0.28	0
bin	0.3	0
bin	0.32	0
bin	0.34	0
bin	0.36	0
bin	0.38	0
bin	0.4	0
bin	0.42	0
bin	0.44	0
bin	0.46	0
bin	0.48	0
bin	0.5	0
scalar WiredAndWirelessHostsWithAP.wirelessHost[0].wlan[0].radio radioMode:count 220
attr interpolationmode sample-hold
attr source radioModeChanged
attr title "Radio mode, count"
scalar WiredAndWirelessHostsWithAP.wirelessHost[0].wlan[0].radio receptionState:count 7938
attr interpolationmode sample-hold
attr source receptionStateChanged
attr title "Radio reception state, count"
scalar WiredAndWirelessHostsWithAP.wirelessHost[0].wlan[0].radio transmissionState:count 434
attr interpolationmode sample-hold
attr source transmissionStateChanged
attr title "Radio transmission state, count"
statistic WiredAndWirelessHostsWithAP.wirelessHost[0].wlan[0].radio minSnir:histogram
field count 3637
field mean 35660.041516164
field stddev 30297.312990681
field min 0.070604719779403
field max 147015.18969501
field sum 129695570.99429
field sqrsum 7962532652438.3
attr source minimumSnir(packetSentToUpper)
attr title "Min SNIR, histogram"
bin	-inf	0
bin	0	622
bin	2000	392
bin	4000	245
bin	6000	147
bin	8000	0
bin	10000	93
bin	12000	48
bin	14000	49
bin	16000	49
bin	18000	0
bin	20000	36
bin	22000	0
bin	24000	0
bin	26000	0
bin	28000	0
bin	30000	0
bin	32000	0
bin	34000	0
bin	36000	0
bin	38000	0
bin	40000	0
bin	42000	0
bin	44000	0
bin	46000	0
bin	48000	0
bin	50000	0
bin	52000	0
bin	54000	0
bin	56000	0
bin	58000	0
bin	60000	1917
bin	62000	0
bin	64000	0
bin	66000	0
bin	68000	0
bin	70000	0
bin	72000	0
bin	74000	0
bin	76000	0
bin	78000	0
bin	80000	0
bin	82000	0
bin	84000	0
bin	86000	0
bin	88000	0
bin	90000	0
bin	92000	0
bin	94000	0
bin	96000	0
bin	98000	0
bin	100000	0
bin	102000	0
bin	104000	0
bin	106000	0
bin	108000	0
bin	110000	0
bin	112000	0
bin	114000	0
bin	116000	0
bin	118000	0
bin	120000	0
bin	122000	0
bin	124000	0
bin	126000	0
bin	128000	0
bin	130000	0
bin	132000	0
bin	134000	0
bin	136000	0
bin	138000	0
bin	140000	0
bin	142000	0
bin	144000	0
bin	146000	39
bin	148000	0
bin	150000	0
bin	152000	0
bin	154000	0
bin	156000	0
bin	158000	0
bin	160000	0
bin	162000	0
bin	164000	0
bin	166000	0
bin	168000	0
bin	170000	0
bin	172000	0
bin	174000	0
bin	176000	0
bin	178000	0
bin	180000	0
bin	182000	0
bin	184000	0
statistic WiredAndWirelessHostsWithAP.wirelessHost[0].wlan[0].radio packetErrorRate:histogram
field count 3637
field mean 0.089830242358513
field stddev 0.28349125013461
field min 0
field max 1
field sum 326.71259145791
field sqrsum 321.56413372313
attr source packetErrorRate(packetSentToUpper)
attr title "Packet error rate, histogram"
bin	-inf	0
bin	-0.5	0
bin	-0.48	0
bin	-0.46	0
bin	-0.44	0
bin	-0.42	0
bin	-0.4	0
bin	-0.38	0
bin	-0.36	0
bin	-0.34	0
bin	-0.32	0
bin	-0.3	0
bin	-0.28	0
bin	-0.26	0
bin	-0.24	0
bin	-0.22	0
bin	-0.2	0
bin	-0.18	0
bin	-0.16	0
bin	-0.14	0
bin	-0.12	0
bin	-0.1	0
bin	-0.08	0
bin	-0.06	0
bin	-0.04	0
bin	-0.02	0
bin	0	3291
bin	0.02	0
bin	0.04	1
bin	0.06	5
bin	0.08	2
bin	0.1	1
bin	0.12	0
bin	0.14	0
bin	0.16	0
bin	0.18	2
bin	0.2	0
bin	0.22	0
bin	0.24	1
bin	0.26	1
bin	0.28	4
bin	0.3	0
bin	0.32	0
bin	0.34	0
bin	0.36	1
bin	0.38	0
bin	0.4	0
bin	0.42	2
bin	0.44	0
bin	0.46	0
bin	0.48	2
bin	0.5	1
bin	0.52	0
bin	0.54	0
bin	0.56	1
bin	0.58	0
bin	0.6	1
bin	0.62	0
bin	0.64	0
bin	0.66	0
bin	0.68	0
bin	0.7	0
bin	0.72	0
bin	0.74	0
bin	0.76	1
bin	0.78	0
bin	0.8	0
bin	0.82	0
bin	0.84	2
bin	0.86	1
bin	0.88	1
bin	0.9	0
bin	0.92	0
bin	0.94	1
bin	0.96	6
bin	0.98	48
bin	1	261
bin	1.02	0
statistic WiredAndWirelessHostsWithAP.wirelessHost[0].wlan[0].radio bitErrorRate:histogram
field count 0
field mean -nan
field stddev nan
field min nan
field max nan
field sum 0
field sqrsum 0
attr source bitErrorRate(packetSentToUpper)
attr title "Bit error rate, histogram"
bin	-inf	0
bin	0	0
bin	1	0
statistic WiredAndWirelessHostsWithAP.wirelessHost[0].wlan[0].radio symbolErrorRate:histogram
field count 0
field mean -nan
field stddev nan
field min nan
field max nan
field sum 0
field sqrsum 0
attr source symbolErrorRate(packetSentToUpper)
attr title "Symbol error rate, histogram"
bin	-inf	0
bin	0	0
bin	1	0
scalar WiredAndWirelessHostsWithAP.wirelessHost[0].ipv4.ip packetDropAddressResolutionFailed:count 0
attr interpolationmode none
attr source packetDropReasonIsAddressResolutionFailed(packetDropped)
attr title "packet drop: address resolution failed, count"
scalar WiredAndWirelessHostsWithAP.wirelessHost[0].ipv4.ip packetDropAddressResolutionFailed:sum(packetBytes) 0
attr interpolationmode none
attr source packetDropReasonIsAddressResolutionFailed(packetDropped)
attr title "packet drop: address resolution failed, sum(packetBytes)"
scalar WiredAndWirelessHostsWithAP.wirelessHost[0].ipv4.ip packetDropHopLimitReached:count 0
attr interpolationmode none
attr source packetDropReasonIsHopLimitReached(packetDropped)
attr title "packet drop: hop limit reached, count"
scalar WiredAndWirelessHostsWithAP.wirelessHost[0].ipv4.ip packetDropHopLimitReached:sum(packetBytes) 0
attr interpolationmode none
attr source packetDropReasonIsHopLimitReached(packetDropped)
attr title "packet drop: hop limit reached, sum(packetBytes)"
scalar WiredAndWirelessHostsWithAP.wirelessHost[0].ipv4.ip packetDropForwardingDisabled:count 0
attr interpolationmode none
attr source packetDropReasonIsForwardingDisabled(packetDropped)
attr title "packet drop: forwarding disabled, count"
scalar WiredAndWirelessHostsWithAP.wirelessHost[0].ipv4.ip packetDropForwardingDisabled:sum(packetBytes) 0
attr interpolationmode none
attr source packetDropReasonIsForwardingDisabled(packetDropped)
attr title "packet drop: forwarding disabled, sum(packetBytes)"
scalar WiredAndWirelessHostsWithAP.wirelessHost[0].ipv4.ip packetDropNoInterfaceFound:count 0
attr interpolationmode none
attr source packetDropReasonIsNoInterfaceFound(packetDropped)
attr title "packet drop: no interface found, count"
scalar WiredAndWirelessHostsWithAP.wirelessHost[0].ipv4.ip packetDropNoInterfaceFound:sum(packetBytes) 0
attr interpolationmode none
attr source packetDropReasonIsNoInterfaceFound(packetDropped)
attr title "packet drop: no interface found, sum(packetBytes)"
scalar WiredAndWirelessHostsWithAP.wirelessHost[0].ipv4.ip packetDropNoRouteFound:count 0
attr interpolationmode none
attr source packetDropReasonIsNoRouteFound(packetDropped)
attr title "packet drop: no route found, count"
scalar WiredAndWirelessHostsWithAP.wirelessHost[0].ipv4.ip packetDropNoRouteFound:sum(packetBytes) 0
attr interpolationmode none
attr source packetDropReasonIsNoRouteFound(packetDropped)
attr title "packet drop: no route found, sum(packetBytes)"
scalar WiredAndWirelessHostsWithAP.wirelessHost[0].ipv4.ip packetDropUndefined:count 0
attr interpolationmode none
attr source packetDropReasonIsUndefined(packetDropped)
attr title "packet drop: undefined, count"
scalar WiredAndWirelessHostsWithAP.wirelessHost[0].ipv4.ip packetDropUndefined:sum(packetBytes) 0
attr interpolationmode none
attr source packetDropReasonIsUndefined(packetDropped)
attr title "packet drop: undefined, sum(packetBytes)"
scalar WiredAndWirelessHostsWithAP.wirelessHost[0].ipv4.arp arpResolutionFailed:count 0
attr title "ARP failed resolutions, count"
scalar WiredAndWirelessHostsWithAP.wirelessHost[0].ipv4.arp arpResolutionCompleted:count 1
attr title "ARP completed resolutions, count"
scalar WiredAndWirelessHostsWithAP.wirelessHost[0].ipv4.arp arpResolutionInitiated:count 1
attr title "ARP initiated resolutions, count"
scalar WiredAndWirelessHostsWithAP.wirelessHost[0].ipv4.arp arpReplySent:count 0
attr source arpReplySent
attr title "ARP replies sent, count"
scalar WiredAndWirelessHostsWithAP.wirelessHost[0].ipv4.arp arpReplySent:sum(packetBytes) 0
attr source arpReplySent
attr title "ARP replies sent, sum(packetBytes)"
scalar WiredAndWirelessHostsWithAP.wirelessHost[0].ipv4.arp arpRequestSent:count 1
attr source arpRequestSent
attr title "ARP request sent, count"
scalar WiredAndWirelessHostsWithAP.wirelessHost[0].ipv4.arp arpRequestSent:sum(packetBytes) 28
attr source arpRequestSent
attr title "ARP request sent, sum(packetBytes)"
scalar WiredAndWirelessHostsWithAP.wirelessHost[0].udp packetReceived:count 0
attr interpolationmode none
attr source packetReceived
attr title "packets received, count"
scalar WiredAndWirelessHostsWithAP.wirelessHost[0].udp packetReceived:sum(packetBytes) 0
attr interpolationmode none
attr source packetReceived
attr title "packets received, sum(packetBytes)"
scalar WiredAndWirelessHostsWithAP.wirelessHost[0].udp packetSent:count 40
attr interpolationmode none
attr source packetSent
attr title "packets sent, count"
scalar WiredAndWirelessHostsWithAP.wirelessHost[0].udp packetSent:sum(packetBytes) 4320
attr interpolationmode none
attr source packetSent
attr title "packets sent, sum(packetBytes)"
scalar WiredAndWirelessHostsWithAP.wirelessHost[0].udp passedUpPk:count 0
attr interpolationmode none
attr source packetSentToUpper
attr title "packets passed up, count"
scalar WiredAndWirelessHostsWithAP.wirelessHost[0].udp droppedPkWrongPort:count 0
attr interpolationmode none
attr source packetDropReasonIsNoPortFound(packetDropped)
attr title "packets dropped (wrong port), count"
scalar WiredAndWirelessHostsWithAP.wirelessHost[0].udp droppedPkBadChecksum:count 0
attr interpolationmode none
attr source packetDropReasonIsIncorrectlyReceived(packetDropped)
attr title "packets dropped (checksum error), count"
scalar WiredAndWirelessHostsWithAP.wirelessHost[0].app[0] "packets sent" 40
scalar WiredAndWirelessHostsWithAP.wirelessHost[0].app[0] "packets received" 0
scalar WiredAndWirelessHostsWithAP.wirelessHost[0].app[0] packetReceived:count 0
attr interpolationmode none
attr source packetReceived
attr title "packets received, count"
scalar WiredAndWirelessHostsWithAP.wirelessHost[0].app[0] packetReceived:sum(packetBytes) 0
attr interpolationmode none
attr source packetReceived
attr title "packets received, sum(packetBytes)"
statistic WiredAndWirelessHostsWithAP.wirelessHost[0].app[0] rcvdPkLifetime:stats
field count 0
field mean -nan
field stddev nan
field min nan
field max nan
field sum 0
field sqrsum 0
attr interpolationmode none
attr source dataAge(packetReceived)
attr title "received packet lifetime, stats"
attr unit s
scalar WiredAndWirelessHostsWithAP.wirelessHost[0].app[0] packetSent:count 40
attr interpolationmode none
attr source packetSent
attr title "packets sent, count"
scalar WiredAndWirelessHostsWithAP.wirelessHost[0].app[0] packetSent:sum(packetBytes) 4000
attr interpolationmode none
attr source packetSent
attr title "packets sent, sum(packetBytes)"
scalar WiredAndWirelessHostsWithAP.wirelessHost[1].lo[0].lo rcvdPkFromHl:count 0
attr interpolationmode none
attr source packetReceivedFromUpper
attr title "packets received from higher layer, count"
scalar WiredAndWirelessHostsWithAP.wirelessHost[1].lo[0].lo rcvdPkFromHl:sum(packetBytes) 0
attr interpolationmode none
attr source packetReceivedFromUpper
attr title "packets received from higher layer, sum(packetBytes)"
scalar WiredAndWirelessHostsWithAP.wirelessHost[1].lo[0].lo passedUpPk:count 0
attr interpolationmode none
attr source packetSentToUpper
attr title "packets passed to higher layer, count"
scalar WiredAndWirelessHostsWithAP.wirelessHost[1].lo[0].lo passedUpPk:sum(packetBytes) 0
attr interpolationmode none
attr source packetSentToUpper
attr title "packets passed to higher layer, sum(packetBytes)"
scalar WiredAndWirelessHostsWithAP.wirelessHost[1].wlan[0].agent dropConfirm:count 0
attr title "dropped confirms, count"
scalar WiredAndWirelessHostsWithAP.wirelessHost[1].wlan[0].agent acceptConfirm:count 3
attr title "accepted confirms, count"
scalar WiredAndWirelessHostsWithAP.wirelessHost[1].wlan[0].agent sentRequest:count 3
attr title "sent requests, count"
scalar WiredAndWirelessHostsWithAP.wirelessHost[1].wlan[0].mac.dcf.channelAccess.pendingQueue packetPopped:count 45
attr interpolationmode none
attr title "packet popped, count"
scalar WiredAndWirelessHostsWithAP.wirelessHost[1].wlan[0].mac.dcf.channelAccess.pendingQueue packetPopped:sum(packetBytes) 6760
attr interpolationmode none
attr title "packet popped, sum(packetBytes)"
statistic WiredAndWirelessHostsWithAP.wirelessHost[1].wlan[0].mac.dcf.channelAccess.pendingQueue queueingTime:histogram
field count 45
field mean 2.7898416311111e-05
field stddev 0.00013694867024967
field min 0
field max 0.000887428734
field sum 0.001255428734
field sqrsum 8.6024175792884e-07
attr interpolationmode none
attr source queueingTime(packetPopped)
attr title "queueing times, histogram"
attr unit s
bin	-inf	0
bin	0	42
bin	2e-05	0
bin	4e-05	0
bin	6e-05	0
bin	8e-05	0
bin	0.0001	0
bin	0.00012	1
bin	0.00014	0
bin	0.00016	0
bin	0.00018	0
bin	0.0002	0
bin	0.00022	1
bin	0.00024	0
bin	0.00026	0
bin	0.00028	0
bin	0.0003	0
bin	0.00032	0
bin	0.00034	0
bin	0.00036	0
bin	0.00038	0
bin	0.0004	0
bin	0.00042	0
bin	0.00044	0
bin	0.00046	0
bin	0.00048	0
bin	0.0005	0
bin	0.00052	0
bin	0.00054	0
bin	0.00056	0
bin	0.00058	0
bin	0.0006	0
bin	0.00062	0
bin	0.00064	0
bin	0.00066	0
bin	0.00068	0
bin	0.0007	0
bin	0.00072	0
bin	0.00074	0
bin	0.00076	0
bin	0.00078	0
bin	0.0008	0
bin	0.00082	0
bin	0.00084	0
bin	0.00086	0
bin	0.00088	1
bin	0.0009	0
bin	0.00092	0
bin	0.00094	0
bin	0.00096	0
bin	0.00098	0
bin	0.001	0
bin	0.00102	0
bin	0.00104	0
bin	0.00106	0
bin	0.00108	0
bin	0.0011	0
bin	0.00112	0
scalar WiredAndWirelessHostsWithAP.wirelessHost[1].wlan[0].mac.dcf.channelAccess.pendingQueue queueLength:max 1
attr interpolationmode sample-hold
attr source "count(packetPushed) - count(packetPopped) - count(packetRemoved) - count(packetDropped)"
attr title "queue length, max"
scalar WiredAndWirelessHostsWithAP.wirelessHost[1].wlan[0].mac.dcf.channelAccess.pendingQueue queueLength:timeavg 3.1474337083876e-05
attr interpolationmode sample-hold
attr source "count(packetPushed) - count(packetPopped) - count(packetRemoved) - count(packetDropped)"
attr title "queue length, timeavg"
scalar WiredAndWirelessHostsWithAP.wirelessHost[1].wlan[0].mac.dcf.channelAccess.pendingQueue packetPushed:count 45
attr interpolationmode none
attr title "packet pushed, count"
scalar WiredAndWirelessHostsWithAP.wirelessHost[1].wlan[0].mac.dcf.channelAccess.pendingQueue packetPushed:sum(packetBytes) 6760
attr interpolationmode none
attr title "packet pushed, sum(packetBytes)"
scalar WiredAndWirelessHostsWithAP.wirelessHost[1].wlan[0].mac.dcf.channelAccess.pendingQueue packetDropQueueOverflow:count 0
attr interpolationmode none
attr source packetDropReasonIsQueueOverflow(packetDropped)
attr title "packet drops: queue overflow, count"
scalar WiredAndWirelessHostsWithAP.wirelessHost[1].wlan[0].mac.dcf.channelAccess.pendingQueue packetDropQueueOverflow:sum(packetBytes) 0
attr interpolationmode none
attr source packetDropReasonIsQueueOverflow(packetDropped)
attr title "packet drops: queue overflow, sum(packetBytes)"
scalar WiredAndWirelessHostsWithAP.wirelessHost[1].wlan[0].mac.dcf.channelAccess.pendingQueue packetRemoved:count 0
attr interpolationmode none
attr title "packets removed, count"
scalar WiredAndWirelessHostsWithAP.wirelessHost[1].wlan[0].mac.dcf.channelAccess.pendingQueue packetRemoved:sum(packetBytes) 0
attr interpolationmode none
attr title "packets removed, sum(packetBytes)"
statistic WiredAndWirelessHostsWithAP.wirelessHost[1].wlan[0].mac.dcf.channelAccess.inProgressFrames queueingTime:histogram
field count 44
field mean 0.026942189327182
field stddev 0.016760557429741
field min 3.8e-05
field max 0.050011187565
field sum 1.185456330396
field sqrsum 0.044018189162928
attr interpolationmode none
attr source queueingTime(packetDequeued)
attr title "queueing times, histogram"
bin	-inf	0
bin	0	4
bin	0.001	1
bin	0.002	2
bin	0.003	0
bin	0.004	0
bin	0.005	1
bin	0.006	1
bin	0.007	0
bin	0.008	1
bin	0.009	0
bin	0.01	2
bin	0.011	1
bin	0.012	0
bin	0.013	0
bin	0.014	0
bin	0.015	0
bin	0.016	0
bin	0.017	0
bin	0.018	0
bin	0.019	2
bin	0.02	0
bin	0.021	0
bin	0.022	1
bin	0.023	0
bin	0.024	0
bin	0.025	1
bin	0.026	0
bin	0.027	3
bin	0.028	1
bin	0.029	2
bin	0.03	1
bin	0.031	1
bin	0.032	1
bin	0.033	1
bin	0.034	1
bin	0.035	1
bin	0.036	0
bin	0.037	1
bin	0.038	1
bin	0.039	1
bin	0.04	0
bin	0.041	2
bin	0.042	1
bin	0.043	0
bin	0.044	1
bin	0.045	1
bin	0.046	1
bin	0.047	0
bin	0.048	3
bin	0.049	2
bin	0.05	1
bin	0.051	0
bin	0.052	0
bin	0.053	0
bin	0.054	0
bin	0.055	0
bin	0.056	0
bin	0.057	0
bin	0.058	0
bin	0.059	0
bin	0.06	0
bin	0.061	0
bin	0.062	0
bin	0.063	0
scalar WiredAndWirelessHostsWithAP.wirelessHost[1].wlan[0].mac.dcf.channelAccess.inProgressFrames queueLength:max 1
attr interpolationmode sample-hold
attr source "count(packetEnqueued) - count(packetDequeued)"
attr title "queue length, max"
scalar WiredAndWirelessHostsWithAP.wirelessHost[1].wlan[0].mac.dcf.channelAccess.inProgressFrames queueLength:timeavg 0.029720087752188
attr interpolationmode sample-hold
attr source "count(packetEnqueued) - count(packetDequeued)"
attr title "queue length, timeavg"
scalar WiredAndWirelessHostsWithAP.wirelessHost[1].wlan[0].mac.dcf.channelAccess.contention channelAccessGranted:count 117
attr title "channel access granted, count"
scalar WiredAndWirelessHostsWithAP.wirelessHost[1].wlan[0].mac.dcf.channelAccess.contention stateChanged:count 15982
attr interpolationmode none
attr title "contention state changed, count"
scalar WiredAndWirelessHostsWithAP.wirelessHost[1].wlan[0].mac.dcf.channelAccess channelOwnershipChanged:count 233
attr interpolationmode sample-hold
attr title "channel ownership, count"
scalar WiredAndWirelessHostsWithAP.wirelessHost[1].wlan[0].mac.dcf.originatorMacDataService packetAggregated:count 0
attr title "packets aggregated, count"
scalar WiredAndWirelessHostsWithAP.wirelessHost[1].wlan[0].mac.dcf.originatorMacDataService packetFragmented:count 0
attr title "packets fragmented, count"
scalar WiredAndWirelessHostsWithAP.wirelessHost[1].wlan[0].mac.dcf.recipientMacDataService packetDeaggregated:count 0
attr title "packets deaggregated, count"
scalar WiredAndWirelessHostsWithAP.wirelessHost[1].wlan[0].mac.dcf.recipientMacDataService packetDefragmented:count 461
attr title "packets defragmented, count"
scalar WiredAndWirelessHostsWithAP.wirelessHost[1].wlan[0].mac.dcf.recipientMacDataService packetDropDuplicateDetected:count 0
attr interpolationmode none
attr source packetDropReasonIsDuplicateDetected(packetDropped)
attr title "packet drops: duplicate detected, count"
scalar WiredAndWirelessHostsWithAP.wirelessHost[1].wlan[0].mac.dcf.recipientMacDataService packetDropDuplicateDetected:sum(packetBytes) 0
attr interpolationmode none
attr source packetDropReasonIsDuplicateDetected(packetDropped)
attr title "packet drops: duplicate detected, sum(packetBytes)"
scalar WiredAndWirelessHostsWithAP.wirelessHost[1].wlan[0].mac.dcf.recoveryProcedure retryLimitReached:count 0
attr title "retry limit reached, count"
scalar WiredAndWirelessHostsWithAP.wirelessHost[1].wlan[0].mac.dcf frameSequenceFinished:count 116
attr title "finished frame sequences, count"
statistic WiredAndWirelessHostsWithAP.wirelessHost[1].wlan[0].mac.dcf frameSequenceDuration:histogram
field count 116
field mean 0.0010382537548448
field stddev 0.00019450156370919
field min 3.8e-05
field max 0.001107428734
field sum 0.120437435562
field sqrsum 0.00012939516839894
attr source frameSequenceDuration(frameSequenceFinished)
attr title "frame sequence durations, histogram"
bin	-inf	0
bin	0	0
bin	2e-05	1
bin	4e-05	0
bin	6e-05	0
bin	8e-05	3
bin	0.0001	0
bin	0.00012	0
bin	0.00014	0
bin	0.00016	0
bin	0.00018	0
bin	0.0002	0
bin	0.00022	0
bin	0.00024	0
bin	0.00026	0
bin	0.00028	0
bin	0.0003	0
bin	0.00032	0
bin	0.00034	0
bin	0.00036	0
bin	0.00038	0
bin	0.0004	0
bin	0.00042	0
bin	0.00044	0
bin	0.00046	0
bin	0.00048	0
bin	0.0005	0
bin	0.00052	0
bin	0.00054	0
bin	0.00056	0
bin	0.00058	0
bin	0.0006	0
bin	0.00062	0
bin	0.00064	0
bin	0.00066	2
bin	0.00068	0
bin	0.0007	1
bin	0.00072	0
bin	0.00074	0
bin	0.00076	0
bin	0.00078	0
bin	0.0008	0
bin	0.00082	0
bin	0.00084	0
bin	0.00086	0
bin	0.00088	0
bin	0.0009	0
bin	0.00092	0
bin	0.00094	0
bin	0.00096	0
bin	0.00098	0
bin	0.001	0
bin	0.00102	0
bin	0.00104	0
bin	0.00106	70
bin	0.00108	0
bin	0.0011	39
bin	0.00112	0
bin	0.00114	0
bin	0.00116	0
bin	0.00118	0
bin	0.0012	0
bin	0.00122	0
bin	0.00124	0
bin	0.00126	0
bin	0.00128	0
bin	0.0013	0
bin	0.00132	0
bin	0.00134	0
bin	0.00136	0
bin	0.00138	0
statistic WiredAndWirelessHostsWithAP.wirelessHost[1].wlan[0].mac.dcf frameSequenceNumPackets:histogram
field count 116
field mean 1.9913793103448
field stddev 0.092847669088526
field min 1
field max 2
field sum 231
field sqrsum 461
attr source frameSequenceNumPackets(frameSequenceFinished)
attr title "frame sequences: number of packets, histogram"
bin	-inf	0
bin	0	0
bin	1	1
bin	2	115
bin	3	0
scalar WiredAndWirelessHostsWithAP.wirelessHost[1].wlan[0].mac.dcf packetReceivedFromPeer:count 504
attr interpolationmode none
attr title "packets received, count"
scalar WiredAndWirelessHostsWithAP.wirelessHost[1].wlan[0].mac.dcf packetReceivedFromPeer:sum(packetBytes) 22708
attr interpolationmode none
attr title "packets received, sum(packetBytes)"
scalar WiredAndWirelessHostsWithAP.wirelessHost[1].wlan[0].mac.dcf packetReceivedFromPeerUnicast:count 48
attr interpolationmode none
attr source ieee80211Unicast(packetReceivedFromPeer)
attr title "packets received: unicast, count"
scalar WiredAndWirelessHostsWithAP.wirelessHost[1].wlan[0].mac.dcf packetReceivedFromPeerUnicast:sum(packetBytes) 836
attr interpolationmode none
attr source ieee80211Unicast(packetReceivedFromPeer)
attr title "packets received: unicast, sum(packetBytes)"
scalar WiredAndWirelessHostsWithAP.wirelessHost[1].wlan[0].mac.dcf packetReceivedFromPeerMulticast:count 456
attr interpolationmode none
attr source ieee80211Multicast(packetReceivedFromPeer)
attr title "packets received: multicast, count"
scalar WiredAndWirelessHostsWithAP.wirelessHost[1].wlan[0].mac.dcf packetReceivedFromPeerMulticast:sum(packetBytes) 21872
attr interpolationmode none
attr source ieee80211Multicast(packetReceivedFromPeer)
attr title "packets received: multicast, sum(packetBytes)"
scalar WiredAndWirelessHostsWithAP.wirelessHost[1].wlan[0].mac.dcf packetReceivedFromPeerBroadcast:count 456
attr interpolationmode none
attr source ieee80211Broadcast(packetReceivedFromPeer)
attr title "packets received: broadcast, count"
scalar WiredAndWirelessHostsWithAP.wirelessHost[1].wlan[0].mac.dcf packetReceivedFromPeerBroadcast:sum(packetBytes) 21872
attr interpolationmode none
attr source ieee80211Broadcast(packetReceivedFromPeer)
attr title "packets received: broadcast, sum(packetBytes)"
scalar WiredAndWirelessHostsWithAP.wirelessHost[1].wlan[0].mac.dcf packetReceivedFromPeerWithRetry:count 28
attr interpolationmode none
attr source ieee80211Retry(packetReceivedFromPeer)
attr title "packets received: with retry, count"
scalar WiredAndWirelessHostsWithAP.wirelessHost[1].wlan[0].mac.dcf packetReceivedFromPeerWithRetry:sum(packetBytes) 1792
attr interpolationmode none
attr source ieee80211Retry(packetReceivedFromPeer)
attr title "packets received: with retry, sum(packetBytes)"
scalar WiredAndWirelessHostsWithAP.wirelessHost[1].wlan[0].mac.dcf packetReceivedFromPeerWithoutRetry:count 476
attr interpolationmode none
attr source ieee80211NotRetry(packetReceivedFromPeer)
attr title "packets received: without retry, count"
scalar WiredAndWirelessHostsWithAP.wirelessHost[1].wlan[0].mac.dcf packetReceivedFromPeerWithoutRetry:sum(packetBytes) 20916
attr interpolationmode none
attr source ieee80211NotRetry(packetReceivedFromPeer)
attr title "packets received: without retry, sum(packetBytes)"
scalar WiredAndWirelessHostsWithAP.wirelessHost[1].wlan[0].mac.dcf packetSentToPeer:count 121
attr interpolationmode none
attr title "packets sent, count"
scalar WiredAndWirelessHostsWithAP.wirelessHost[1].wlan[0].mac.dcf packetSentToPeer:sum(packetBytes) 18274
attr interpolationmode none
attr title "packets sent, sum(packetBytes)"
scalar WiredAndWirelessHostsWithAP.wirelessHost[1].wlan[0].mac.dcf packetSentToPeerUnicast:count 120
attr interpolationmode none
attr source ieee80211Unicast(packetSentToPeer)
attr title "packets sent: unicast, count"
scalar WiredAndWirelessHostsWithAP.wirelessHost[1].wlan[0].mac.dcf packetSentToPeerUnicast:sum(packetBytes) 18242
attr interpolationmode none
attr source ieee80211Unicast(packetSentToPeer)
attr title "packets sent: unicast, sum(packetBytes)"
scalar WiredAndWirelessHostsWithAP.wirelessHost[1].wlan[0].mac.dcf packetSentToPeerMulticast:count 1
attr interpolationmode none
attr source ieee80211Multicast(packetSentToPeer)
attr title "packets sent: multicast, count"
scalar WiredAndWirelessHostsWithAP.wirelessHost[1].wlan[0].mac.dcf packetSentToPeerMulticast:sum(packetBytes) 32
attr interpolationmode none
attr source ieee80211Multicast(packetSentToPeer)
attr title "packets sent: multicast, sum(packetBytes)"
scalar WiredAndWirelessHostsWithAP.wirelessHost[1].wlan[0].mac.dcf packetSentToPeerBroadcast:count 1
attr interpolationmode none
attr source ieee80211Broadcast(packetSentToPeer)
attr title "packets sent: broadcast , count"
scalar WiredAndWirelessHostsWithAP.wirelessHost[1].wlan[0].mac.dcf packetSentToPeerBroadcast:sum(packetBytes) 32
attr interpolationmode none
attr source ieee80211Broadcast(packetSentToPeer)
attr title "packets sent: broadcast , sum(packetBytes)"
scalar WiredAndWirelessHostsWithAP.wirelessHost[1].wlan[0].mac.dcf packetSentToPeerWithRetry:count 72
attr interpolationmode none
attr source ieee80211Retry(packetSentToPeer)
attr title "packets sent: with retry, count"
scalar WiredAndWirelessHostsWithAP.wirelessHost[1].wlan[0].mac.dcf packetSentToPeerWithRetry:sum(packetBytes) 11608
attr interpolationmode none
attr source ieee80211Retry(packetSentToPeer)
attr title "packets sent: with retry, sum(packetBytes)"
scalar WiredAndWirelessHostsWithAP.wirelessHost[1].wlan[0].mac.dcf packetSentToPeerWithoutRetry:count 49
attr interpolationmode none
attr source ieee80211NotRetry(packetSentToPeer)
attr title "packets sent: without retry, count"
scalar WiredAndWirelessHostsWithAP.wirelessHost[1].wlan[0].mac.dcf packetSentToPeerWithoutRetry:sum(packetBytes) 6666
attr interpolationmode none
attr source ieee80211NotRetry(packetSentToPeer)
attr title "packets sent: without retry, sum(packetBytes)"
scalar WiredAndWirelessHostsWithAP.wirelessHost[1].wlan[0].mac.dcf packetDrop:count 2769
attr interpolationmode none
attr source packetDropped
attr title "packet drops, count"
scalar WiredAndWirelessHostsWithAP.wirelessHost[1].wlan[0].mac.dcf packetDrop:sum(packetBytes) 214270
attr interpolationmode none
attr source packetDropped
attr title "packet drops, sum(packetBytes)"
scalar WiredAndWirelessHostsWithAP.wirelessHost[1].wlan[0].mac.dcf packetDropNotAddressedToUs:count 2769
attr interpolationmode none
attr source packetDropReasonIsNotAddressedToUs(packetDropped)
attr title "packet drops: not addressed to us, count"
scalar WiredAndWirelessHostsWithAP.wirelessHost[1].wlan[0].mac.dcf packetDropNotAddressedToUs:sum(packetBytes) 214270
attr interpolationmode none
attr source packetDropReasonIsNotAddressedToUs(packetDropped)
attr title "packet drops: not addressed to us, sum(packetBytes)"
scalar WiredAndWirelessHostsWithAP.wirelessHost[1].wlan[0].mac.dcf packetDropQueueOverflow:count 0
attr interpolationmode none
attr source packetDropReasonIsQueueOverflow(packetDropped)
attr title "packet drops: queue overflow, count"
scalar WiredAndWirelessHostsWithAP.wirelessHost[1].wlan[0].mac.dcf packetDropQueueOverflow:sum(packetBytes) 0
attr interpolationmode none
attr source packetDropReasonIsQueueOverflow(packetDropped)
attr title "packet drops: queue overflow, sum(packetBytes)"
scalar WiredAndWirelessHostsWithAP.wirelessHost[1].wlan[0].mac.dcf packetDropRetryLimitReached:count 0
attr interpolationmode none
attr source packetDropReasonIsRetryLimitReached(packetDropped)
attr title "packet drops: retry limit reached, count"
scalar WiredAndWirelessHostsWithAP.wirelessHost[1].wlan[0].mac.dcf packetDropRetryLimitReached:sum(packetBytes) 0
attr interpolationmode none
attr source packetDropReasonIsRetryLimitReached(packetDropped)
attr title "packet drops: retry limit reached, sum(packetBytes)"
scalar WiredAndWirelessHostsWithAP.wirelessHost[1].wlan[0].mac.dcf linkBroken:count 0
attr interpolationmode none
attr title "link breaks, count"
scalar WiredAndWirelessHostsWithAP.wirelessHost[1].wlan[0].mac packetReceivedFromLower:count 3624
attr interpolationmode none
attr title "packets received from lower layer, count"
scalar WiredAndWirelessHostsWithAP.wirelessHost[1].wlan[0].mac packetReceivedFromLower:sum(packetBytes) 293126
attr interpolationmode none
attr title "packets received from lower layer, sum(packetBytes)"
scalar WiredAndWirelessHostsWithAP.wirelessHost[1].wlan[0].mac packetSentToLower:count 122
attr interpolationmode none
attr title "packets sent to lower layer, count"
scalar WiredAndWirelessHostsWithAP.wirelessHost[1].wlan[0].mac packetSentToLower:sum(packetBytes) 18438
attr interpolationmode none
attr title "packets sent to lower layer, sum(packetBytes)"
scalar WiredAndWirelessHostsWithAP.wirelessHost[1].wlan[0].mac packetReceivedFromUpper:count 41
attr interpolationmode none
attr title "packets received from upper layer, count"
scalar WiredAndWirelessHostsWithAP.wirelessHost[1].wlan[0].mac packetReceivedFromUpper:sum(packetBytes) 5476
attr interpolationmode none
attr title "packets received from upper layer, sum(packetBytes)"
scalar WiredAndWirelessHostsWithAP.wirelessHost[1].wlan[0].mac packetSentToUpper:count 29
attr interpolationmode none
attr title "packets sent to upper layer, count"
scalar WiredAndWirelessHostsWithAP.wirelessHost[1].wlan[0].mac packetSentToUpper:sum(packetBytes) 1062
attr interpolationmode none
attr title "packets sent to upper layer, sum(packetBytes)"
scalar WiredAndWirelessHostsWithAP.wirelessHost[1].wlan[0].mac packetDrop:count 3120
attr interpolationmode none
attr source packetDropped
attr title "packet drops, count"
scalar WiredAndWirelessHostsWithAP.wirelessHost[1].wlan[0].mac packetDrop:sum(packetBytes) 270418
attr interpolationmode none
attr source packetDropped
attr title "packet drops, sum(packetBytes)"
scalar WiredAndWirelessHostsWithAP.wirelessHost[1].wlan[0].mac packetDropIncorrectlyReceived:count 351
attr interpolationmode none
attr source packetDropReasonIsIncorrectlyReceived(packetDropped)
attr title "packet drops: incorrectly received, count"
scalar WiredAndWirelessHostsWithAP.wirelessHost[1].wlan[0].mac packetDropIncorrectlyReceived:sum(packetBytes) 56148
attr interpolationmode none
attr source packetDropReasonIsIncorrectlyReceived(packetDropped)
attr title "packet drops: incorrectly received, sum(packetBytes)"
scalar WiredAndWirelessHostsWithAP.wirelessHost[1].wlan[0].mac packetDropNotAddressedToUs:count 2769
attr interpolationmode none
attr source packetDropReasonIsNotAddressedToUs(packetDropped)
attr title "packet drops: not addressed to us, count"
scalar WiredAndWirelessHostsWithAP.wirelessHost[1].wlan[0].mac packetDropNotAddressedToUs:sum(packetBytes) 214270
attr interpolationmode none
attr source packetDropReasonIsNotAddressedToUs(packetDropped)
attr title "packet drops: not addressed to us, sum(packetBytes)"
scalar WiredAndWirelessHostsWithAP.wirelessHost[1].wlan[0].mac packetDropQueueOverflow:count 0
attr interpolationmode none
attr source packetDropReasonIsQueueOverflow(packetDropped)
attr title "packet drops: queue overflow, count"
scalar WiredAndWirelessHostsWithAP.wirelessHost[1].wlan[0].mac packetDropQueueOverflow:sum(packetBytes) 0
attr interpolationmode none
attr source packetDropReasonIsQueueOverflow(packetDropped)
attr title "packet drops: queue overflow, sum(packetBytes)"
scalar WiredAndWirelessHostsWithAP.wirelessHost[1].wlan[0].mac packetDropRetryLimitReached:count 0
attr interpolationmode none
attr source packetDropReasonIsRetryLimitReached(packetDropped)
attr title "packet drops: retry limit reached, count"
scalar WiredAndWirelessHostsWithAP.wirelessHost[1].wlan[0].mac packetDropRetryLimitReached:sum(packetBytes) 0
attr interpolationmode none
attr source packetDropReasonIsRetryLimitReached(packetDropped)
attr title "packet drops: retry limit reached, sum(packetBytes)"
scalar WiredAndWirelessHostsWithAP.wirelessHost[1].wlan[0].mac packetDropDuplicateDetected:count 0
attr interpolationmode none
attr source packetDropReasonIsDuplicateDetected(packetDropped)
attr title "packet drops: duplicate detected, count"
scalar WiredAndWirelessHostsWithAP.wirelessHost[1].wlan[0].mac packetDropDuplicateDetected:sum(packetBytes) 0
attr interpolationmode none
attr source packetDropReasonIsDuplicateDetected(packetDropped)
attr title "packet drops: duplicate detected, sum(packetBytes)"
scalar WiredAndWirelessHostsWithAP.wirelessHost[1].wlan[0].mac packetDropOther:count 0
attr interpolationmode none
attr source packetDropReasonIsOther(packetDropped)
attr title "packet drops: other, count"
scalar WiredAndWirelessHostsWithAP.wirelessHost[1].wlan[0].mac packetDropOther:sum(packetBytes) 0
attr interpolationmode none
attr source packetDropReasonIsOther(packetDropped)
attr title "packet drops: other, sum(packetBytes)"
scalar WiredAndWirelessHostsWithAP.wirelessHost[1].wlan[0].mac linkBroken:count 0
attr interpolationmode none
attr title "link breaks, count"
statistic WiredAndWirelessHostsWithAP.wirelessHost[1].wlan[0].radio radioChannel:histogram
field count 4
field mean 0
field stddev 0
field min 0
field max 0
field sum 0
field sqrsum 0
attr interpolationmode sample-hold
attr source radioChannelChanged
attr title "Radio channel, histogram"
bin	-inf	0
bin	-0.5	0
bin	-0.48	0
bin	-0.46	0
bin	-0.44	0
bin	-0.42	0
bin	-0.4	0
bin	-0.38	0
bin	-0.36	0
bin	-0.34	0
bin	-0.32	0
bin	-0.3	0
bin	-0.28	0
bin	-0.26	0
bin	-0.24	0
bin	-0.22	0
bin	-0.2	0
bin	-0.18	0
bin	-0.16	0
bin	-0.14	0
bin	-0.12	0
bin	-0.1	0
bin	-0.08	0
bin	-0.06	0
bin	-0.04	0
bin	-0.02	0
bin	0	4
bin	0.02	0
bin	0.04	0
bin	0.06	0
bin	0.08	0
bin	0.1	0
bin	0.12	0
bin	0.14	0
bin	0.16	0
bin	0.18	0
bin	0.2	0
bin	0.22	0
bin	0.24	0
bin	0.26	0
bin	0.28	0
bin	0.3	0
bin	0.32	0
bin	0.34	0
bin	0.36	0
bin	0.38	0
bin	0.4	0
bin	0.42	0
bin	0.44	0
bin	0.46	0
bin	0.48	0
bin	0.5	0
scalar WiredAndWirelessHostsWithAP.wirelessHost[1].wlan[0].radio radioMode:count 246
attr interpolationmode sample-hold
attr source radioModeChanged
attr title "Radio mode, count"
scalar WiredAndWirelessHostsWithAP.wirelessHost[1].wlan[0].radio receptionState:count 7938
attr interpolationmode sample-hold
attr source receptionStateChanged
attr title "Radio reception state, count"
scalar WiredAndWirelessHostsWithAP.wirelessHost[1].wlan[0].radio transmissionState:count 486
attr interpolationmode sample-hold
attr source transmissionStateChanged
attr title "Radio transmission state, count"
statistic WiredAndWirelessHostsWithAP.wirelessHost[1].wlan[0].radio minSnir:histogram
field count 3624
field mean 3830.850248926
field stddev 3724.2314754953
field min 0.085694680330827
field max 28110.642105067
field sum 13883001.302108
field sqrsum 103434346994.98
attr source minimumSnir(packetSentToUpper)
attr title "Min SNIR, histogram"
bin	-inf	0
bin	0	374
bin	500	49
bin	1000	343
bin	1500	293
bin	2000	98
bin	2500	98
bin	3000	83
bin	3500	137
bin	4000	1868
bin	4500	0
bin	5000	36
bin	5500	0
bin	6000	0
bin	6500	0
bin	7000	0
bin	7500	0
bin	8000	49
bin	8500	0
bin	9000	49
bin	9500	0
bin	10000	0
bin	10500	49
bin	11000	0
bin	11500	0
bin	12000	0
bin	12500	0
bin	13000	0
bin	13500	0
bin	14000	0
bin	14500	0
bin	15000	49
bin	15500	0
bin	16000	0
bin	16500	0
bin	17000	0
bin	17500	0
bin	18000	0
bin	18500	0
bin	19000	0
bin	19500	0
bin	20000	0
bin	20500	0
bin	21000	0
bin	21500	0
bin	22000	0
bin	22500	0
bin	23000	0
bin	23500	0
bin	24000	0
bin	24500	0
bin	25000	0
bin	25500	0
bin	26000	0
bin	26500	0
bin	27000	0
bin	27500	0
bin	28000	49
bin	28500	0
bin	29000	0
bin	29500	0
bin	30000	0
bin	30500	0
bin	31000	0
bin	31500	0
bin	32000	0
bin	32500	0
bin	33000	0
bin	33500	0
bin	34000	0
bin	34500	0
bin	35000	0
statistic WiredAndWirelessHostsWithAP.wirelessHost[1].wlan[0].radio packetErrorRate:histogram
field count 3624
field mean 0.096440603875706
field stddev 0.29305941927337
field min 0
field max 1
field sum 349.50074844556
field sqrsum 344.86315477872
attr source packetErrorRate(packetSentToUpper)
attr title "Packet error rate, histogram"
bin	-inf	0
bin	-0.5	0
bin	-0.48	0
bin	-0.46	0
bin	-0.44	0
bin	-0.42	0
bin	-0.4	0
bin	-0.38	0
bin	-0.36	0
bin	-0.34	0
bin	-0.32	0
bin	-0.3	0
bin	-0.28	0
bin	-0.26	0
bin	-0.24	0
bin	-0.22	0
bin	-0.2	0
bin	-0.18	0
bin	-0.16	0
bin	-0.14	0
bin	-0.12	0
bin	-0.1	0
bin	-0.08	0
bin	-0.06	0
bin	-0.04	0
bin	-0.02	0
bin	0	3260
bin	0.02	2
bin	0.04	0
bin	0.06	1
bin	0.08	2
bin	0.1	1
bin	0.12	0
bin	0.14	0
bin	0.16	0
bin	0.18	0
bin	0.2	0
bin	0.22	0
bin	0.24	1
bin	0.26	1
bin	0.28	0
bin	0.3	1
bin	0.32	0
bin	0.34	1
bin	0.36	2
bin	0.38	0
bin	0.4	0
bin	0.42	1
bin	0.44	1
bin	0.46	0
bin	0.48	0
bin	0.5	2
bin	0.52	0
bin	0.54	0
bin	0.56	0
bin	0.58	1
bin	0.6	1
bin	0.62	0
bin	0.64	2
bin	0.66	0
bin	0.68	1
bin	0.7	0
bin	0.72	0
bin	0.74	0
bin	0.76	0
bin	0.78	0
bin	0.8	0
bin	0.82	1
bin	0.84	2
bin	0.86	0
bin	0.88	0
bin	0.9	2
bin	0.92	0
bin	0.94	4
bin	0.96	1
bin	0.98	57
bin	1	276
bin	1.02	0
statistic WiredAndWirelessHostsWithAP.wirelessHost[1].wlan[0].radio bitErrorRate:histogram
field count 0
field mean -nan
field stddev nan
field min nan
field max nan
field sum 0
field sqrsum 0
attr source bitErrorRate(packetSentToUpper)
attr title "Bit error rate, histogram"
bin	-inf	0
bin	0	0
bin	1	0
statistic WiredAndWirelessHostsWithAP.wirelessHost[1].wlan[0].radio symbolErrorRate:histogram
field count 0
field mean -nan
field stddev nan
field min nan
field max nan
field sum 0
field sqrsum 0
attr source symbolErrorRate(packetSentToUpper)
attr title "Symbol error rate, histogram"
bin	-inf	0
bin	0	0
bin	1	0
scalar WiredAndWirelessHostsWithAP.wirelessHost[1].ipv4.ip packetDropAddressResolutionFailed:count 0
attr interpolationmode none
attr source packetDropReasonIsAddressResolutionFailed(packetDropped)
attr title "packet drop: address resolution failed, count"
scalar WiredAndWirelessHostsWithAP.wirelessHost[1].ipv4.ip packetDropAddressResolutionFailed:sum(packetBytes) 0
attr interpolationmode none
attr source packetDropReasonIsAddressResolutionFailed(packetDropped)
attr title "packet drop: address resolution failed, sum(packetBytes)"
scalar WiredAndWirelessHostsWithAP.wirelessHost[1].ipv4.ip packetDropHopLimitReached:count 0
attr interpolationmode none
attr source packetDropReasonIsHopLimitReached(packetDropped)
attr title "packet drop: hop limit reached, count"
scalar WiredAndWirelessHostsWithAP.wirelessHost[1].ipv4.ip packetDropHopLimitReached:sum(packetBytes) 0
attr interpolationmode none
attr source packetDropReasonIsHopLimitReached(packetDropped)
attr title "packet drop: hop limit reached, sum(packetBytes)"
scalar WiredAndWirelessHostsWithAP.wirelessHost[1].ipv4.ip packetDropForwardingDisabled:count 0
attr interpolationmode none
attr source packetDropReasonIsForwardingDisabled(packetDropped)
attr title "packet drop: forwarding disabled, count"
scalar WiredAndWirelessHostsWithAP.wirelessHost[1].ipv4.ip packetDropForwardingDisabled:sum(packetBytes) 0
attr interpolationmode none
attr source packetDropReasonIsForwardingDisabled(packetDropped)
attr title "packet drop: forwarding disabled, sum(packetBytes)"
scalar WiredAndWirelessHostsWithAP.wirelessHost[1].ipv4.ip packetDropNoInterfaceFound:count 0
attr interpolationmode none
attr source packetDropReasonIsNoInterfaceFound(packetDropped)
attr title "packet drop: no interface found, count"
scalar WiredAndWirelessHostsWithAP.wirelessHost[1].ipv4.ip packetDropNoInterfaceFound:sum(packetBytes) 0
attr interpolationmode none
attr source packetDropReasonIsNoInterfaceFound(packetDropped)
attr title "packet drop: no interface found, sum(packetBytes)"
scalar WiredAndWirelessHostsWithAP.wirelessHost[1].ipv4.ip packetDropNoRouteFound:count 0
attr interpolationmode none
attr source packetDropReasonIsNoRouteFound(packetDropped)
attr title "packet drop: no route found, count"
scalar WiredAndWirelessHostsWithAP.wirelessHost[1].ipv4.ip packetDropNoRouteFound:sum(packetBytes) 0
attr interpolationmode none
attr source packetDropReasonIsNoRouteFound(packetDropped)
attr title "packet drop: no route found, sum(packetBytes)"
scalar WiredAndWirelessHostsWithAP.wirelessHost[1].ipv4.ip packetDropUndefined:count 0
attr interpolationmode none
attr source packetDropReasonIsUndefined(packetDropped)
attr title "packet drop: undefined, count"
scalar WiredAndWirelessHostsWithAP.wirelessHost[1].ipv4.ip packetDropUndefined:sum(packetBytes) 0
attr interpolationmode none
attr source packetDropReasonIsUndefined(packetDropped)
attr title "packet drop: undefined, sum(packetBytes)"
scalar WiredAndWirelessHostsWithAP.wirelessHost[1].ipv4.arp arpResolutionFailed:count 0
attr title "ARP failed resolutions, count"
scalar WiredAndWirelessHostsWithAP.wirelessHost[1].ipv4.arp arpResolutionCompleted:count 1
attr title "ARP completed resolutions, count"
scalar WiredAndWirelessHostsWithAP.wirelessHost[1].ipv4.arp arpResolutionInitiated:count 1
attr title "ARP initiated resolutions, count"
scalar WiredAndWirelessHostsWithAP.wirelessHost[1].ipv4.arp arpReplySent:count 0
attr source arpReplySent
attr title "ARP replies sent, count"
scalar WiredAndWirelessHostsWithAP.wirelessHost[1].ipv4.arp arpReplySent:sum(packetBytes) 0
attr source arpReplySent
attr title "ARP replies sent, sum(packetBytes)"
scalar WiredAndWirelessHostsWithAP.wirelessHost[1].ipv4.arp arpRequestSent:count 1
attr source arpRequestSent
attr title "ARP request sent, count"
scalar WiredAndWirelessHostsWithAP.wirelessHost[1].ipv4.arp arpRequestSent:sum(packetBytes) 28
attr source arpRequestSent
attr title "ARP request sent, sum(packetBytes)"
scalar WiredAndWirelessHostsWithAP.wirelessHost[1].udp packetReceived:count 0
attr interpolationmode none
attr source packetReceived
attr title "packets received, count"
scalar WiredAndWirelessHostsWithAP.wirelessHost[1].udp packetReceived:sum(packetBytes) 0
attr interpolationmode none
attr source packetReceived
attr title "packets received, sum(packetBytes)"
scalar WiredAndWirelessHostsWithAP.wirelessHost[1].udp packetSent:count 40
attr interpolationmode none
attr source packetSent
attr title "packets sent, count"
scalar WiredAndWirelessHostsWithAP.wirelessHost[1].udp packetSent:sum(packetBytes) 4320
attr interpolationmode none
attr source packetSent
attr title "packets sent, sum(packetBytes)"
scalar WiredAndWirelessHostsWithAP.wirelessHost[1].udp passedUpPk:count 0
attr interpolationmode none
attr source packetSentToUpper
attr title "packets passed up, count"
scalar WiredAndWirelessHostsWithAP.wirelessHost[1].udp droppedPkWrongPort:count 0
attr interpolationmode none
attr source packetDropReasonIsNoPortFound(packetDropped)
attr title "packets dropped (wrong port), count"
scalar WiredAndWirelessHostsWithAP.wirelessHost[1].udp droppedPkBadChecksum:count 0
attr interpolationmode none
attr source packetDropReasonIsIncorrectlyReceived(packetDropped)
attr title "packets dropped (checksum error), count"
scalar WiredAndWirelessHostsWithAP.wirelessHost[1].app[0] "packets sent" 40
scalar WiredAndWirelessHostsWithAP.wirelessHost[1].app[0] "packets received" 0
scalar WiredAndWirelessHostsWithAP.wirelessHost[1].app[0] packetReceived:count 0
attr interpolationmode none
attr source packetReceived
attr title "packets received, count"
scalar WiredAndWirelessHostsWithAP.wirelessHost[1].app[0] packetReceived:sum(packetBytes) 0
attr interpolationmode none
attr source packetReceived
attr title "packets received, sum(packetBytes)"
statistic WiredAndWirelessHostsWithAP.wirelessHost[1].app[0] rcvdPkLifetime:stats
field count 0
field mean -nan
field stddev nan
field min nan
field max nan
field sum 0
field sqrsum 0
attr interpolationmode none
attr source dataAge(packetReceived)
attr title "received packet lifetime, stats"
attr unit s
scalar WiredAndWirelessHostsWithAP.wirelessHost[1].app[0] packetSent:count 40
attr interpolationmode none
attr source packetSent
attr title "packets sent, count"
scalar WiredAndWirelessHostsWithAP.wirelessHost[1].app[0] packetSent:sum(packetBytes) 4000
attr interpolationmode none
attr source packetSent
attr title "packets sent, sum(packetBytes)"
scalar WiredAndWirelessHostsWithAP.wirelessHost[2].lo[0].lo rcvdPkFromHl:count 0
attr interpolationmode none
attr source packetReceivedFromUpper
attr title "packets received from higher layer, count"
scalar WiredAndWirelessHostsWithAP.wirelessHost[2].lo[0].lo rcvdPkFromHl:sum(packetBytes) 0
attr interpolationmode none
attr source packetReceivedFromUpper
attr title "packets received from higher layer, sum(packetBytes)"
scalar WiredAndWirelessHostsWithAP.wirelessHost[2].lo[0].lo passedUpPk:count 0
attr interpolationmode none
attr source packetSentToUpper
attr title "packets passed to higher layer, count"
scalar WiredAndWirelessHostsWithAP.wirelessHost[2].lo[0].lo passedUpPk:sum(packetBytes) 0
attr interpolationmode none
attr source packetSentToUpper
attr title "packets passed to higher layer, sum(packetBytes)"
scalar WiredAndWirelessHostsWithAP.wirelessHost[2].wlan[0].agent dropConfirm:count 0
attr title "dropped confirms, count"
scalar WiredAndWirelessHostsWithAP.wirelessHost[2].wlan[0].agent acceptConfirm:count 3
attr title "accepted confirms, count"
scalar WiredAndWirelessHostsWithAP.wirelessHost[2].wlan[0].agent sentRequest:count 3
attr title "sent requests, count"
scalar WiredAndWirelessHostsWithAP.wirelessHost[2].wlan[0].mac.dcf.channelAccess.pendingQueue packetPopped:count 45
attr interpolationmode none
attr title "packet popped, count"
scalar WiredAndWirelessHostsWithAP.wirelessHost[2].wlan[0].mac.dcf.channelAccess.pendingQueue packetPopped:sum(packetBytes) 6760
attr interpolationmode none
attr title "packet popped, sum(packetBytes)"
statistic WiredAndWirelessHostsWithAP.wirelessHost[2].wlan[0].mac.dcf.channelAccess.pendingQueue queueingTime:histogram
field count 45
field mean 1.68e-05
field stddev 6.8383145185452e-05
field min 0
field max 0.000388
field sum 0.000756
field sqrsum 2.18456e-07
attr interpolationmode none
attr source queueingTime(packetPopped)
attr title "queueing times, histogram"
attr unit s
bin	-inf	0
bin	0	42
bin	1e-05	0
bin	2e-05	0
bin	3e-05	0
bin	4e-05	0
bin	5e-05	0
bin	6e-05	0
bin	7e-05	0
bin	8e-05	0
bin	9e-05	0
bin	0.0001	0
bin	0.00011	0
bin	0.00012	0
bin	0.00013	0
bin	0.00014	0
bin	0.00015	0
bin	0.00016	0
bin	0.00017	1
bin	0.00018	0
bin	0.00019	1
bin	0.0002	0
bin	0.00021	0
bin	0.00022	0
bin	0.00023	0
bin	0.00024	0
bin	0.00025	0
bin	0.00026	0
bin	0.00027	0
bin	0.00028	0
bin	0.00029	0
bin	0.0003	0
bin	0.00031	0
bin	0.00032	0
bin	0.00033	0
bin	0.00034	0
bin	0.00035	0
bin	0.00036	0
bin	0.00037	0
bin	0.00038	1
bin	0.00039	0
bin	0.0004	0
bin	0.00041	0
bin	0.00042	0
bin	0.00043	0
bin	0.00044	0
bin	0.00045	0
bin	0.00046	0
bin	0.00047	0
bin	0.00048	0
bin	0.00049	0
scalar WiredAndWirelessHostsWithAP.wirelessHost[2].wlan[0].mac.dcf.channelAccess.pendingQueue queueLength:max 1
attr interpolationmode sample-hold
attr source "count(packetPushed) - count(packetPopped) - count(packetRemoved) - count(packetDropped)"
attr title "queue length, max"
scalar WiredAndWirelessHostsWithAP.wirelessHost[2].wlan[0].mac.dcf.channelAccess.pendingQueue queueLength:timeavg 1.9044447551951e-05
attr interpolationmode sample-hold
attr source "count(packetPushed) - count(packetPopped) - count(packetRemoved) - count(packetDropped)"
attr title "queue length, timeavg"
scalar WiredAndWirelessHostsWithAP.wirelessHost[2].wlan[0].mac.dcf.channelAccess.pendingQueue packetPushed:count 45
attr interpolationmode none
attr title "packet pushed, count"
scalar WiredAndWirelessHostsWithAP.wirelessHost[2].wlan[0].mac.dcf.channelAccess.pendingQueue packetPushed:sum(packetBytes) 6760
attr interpolationmode none
attr title "packet pushed, sum(packetBytes)"
scalar WiredAndWirelessHostsWithAP.wirelessHost[2].wlan[0].mac.dcf.channelAccess.pendingQueue packetDropQueueOverflow:count 0
attr interpolationmode none
attr source packetDropReasonIsQueueOverflow(packetDropped)
attr title "packet drops: queue overflow, count"
scalar WiredAndWirelessHostsWithAP.wirelessHost[2].wlan[0].mac.dcf.channelAccess.pendingQueue packetDropQueueOverflow:sum(packetBytes) 0
attr interpolationmode none
attr source packetDropReasonIsQueueOverflow(packetDropped)
attr title "packet drops: queue overflow, sum(packetBytes)"
scalar WiredAndWirelessHostsWithAP.wirelessHost[2].wlan[0].mac.dcf.channelAccess.pendingQueue packetRemoved:count 0
attr interpolationmode none
attr title "packets removed, count"
scalar WiredAndWirelessHostsWithAP.wirelessHost[2].wlan[0].mac.dcf.channelAccess.pendingQueue packetRemoved:sum(packetBytes) 0
attr interpolationmode none
attr title "packets removed, sum(packetBytes)"
statistic WiredAndWirelessHostsWithAP.wirelessHost[2].wlan[0].mac.dcf.channelAccess.inProgressFrames queueingTime:histogram
field count 44
field mean 0.026589910647386
field stddev 0.018428735577926
field min 3.8e-05
field max 0.062930110443
field sum 1.169956068485
field sqrsum 0.045712614007431
attr interpolationmode none
attr source queueingTime(packetDequeued)
attr title "queueing times, histogram"
bin	-inf	0
bin	0	4
bin	0.001	1
bin	0.002	1
bin	0.003	1
bin	0.004	2
bin	0.005	0
bin	0.006	0
bin	0.007	0
bin	0.008	0
bin	0.009	1
bin	0.01	1
bin	0.011	2
bin	0.012	1
bin	0.013	0
bin	0.014	0
bin	0.015	2
bin	0.016	1
bin	0.017	0
bin	0.018	0
bin	0.019	1
bin	0.02	1
bin	0.021	0
bin	0.022	2
bin	0.023	0
bin	0.024	0
bin	0.025	1
bin	0.026	1
bin	0.027	1
bin	0.028	0
bin	0.029	0
bin	0.03	0
bin	0.031	0
bin	0.032	0
bin	0.033	1
bin	0.034	2
bin	0.035	1
bin	0.036	0
bin	0.037	0
bin	0.038	3
bin	0.039	0
bin	0.04	1
bin	0.041	2
bin	0.042	0
bin	0.043	0
bin	0.044	0
bin	0.045	1
bin	0.046	0
bin	0.047	1
bin	0.048	1
bin	0.049	1
bin	0.05	4
bin	0.051	0
bin	0.052	0
bin	0.053	1
bin	0.054	0
bin	0.055	0
bin	0.056	0
bin	0.057	0
bin	0.058	0
bin	0.059	0
bin	0.06	0
bin	0.061	0
bin	0.062	1
bin	0.063	0
bin	0.064	0
bin	0.065	0
bin	0.066	0
bin	0.067	0
bin	0.068	0
bin	0.069	0
bin	0.07	0
bin	0.071	0
bin	0.072	0
bin	0.073	0
bin	0.074	0
bin	0.075	0
bin	0.076	0
bin	0.077	0
bin	0.078	0
bin	0.079	0
scalar WiredAndWirelessHostsWithAP.wirelessHost[2].wlan[0].mac.dcf.channelAccess.inProgressFrames queueLength:max 1
attr interpolationmode sample-hold
attr source "count(packetEnqueued) - count(packetDequeued)"
attr title "queue length, max"
scalar WiredAndWirelessHostsWithAP.wirelessHost[2].wlan[0].mac.dcf.channelAccess.inProgressFrames queueLength:timeavg 0.029472443100991
attr interpolationmode sample-hold
attr source "count(packetEnqueued) - count(packetDequeued)"
attr title "queue length, timeavg"
scalar WiredAndWirelessHostsWithAP.wirelessHost[2].wlan[0].mac.dcf.channelAccess.contention channelAccessGranted:count 119
attr title "channel access granted, count"
scalar WiredAndWirelessHostsWithAP.wirelessHost[2].wlan[0].mac.dcf.channelAccess.contention stateChanged:count 15828
attr interpolationmode none
attr title "contention state changed, count"
scalar WiredAndWirelessHostsWithAP.wirelessHost[2].wlan[0].mac.dcf.channelAccess channelOwnershipChanged:count 237
attr interpolationmode sample-hold
attr title "channel ownership, count"
scalar WiredAndWirelessHostsWithAP.wirelessHost[2].wlan[0].mac.dcf.originatorMacDataService packetAggregated:count 0
attr title "packets aggregated, count"
scalar WiredAndWirelessHostsWithAP.wirelessHost[2].wlan[0].mac.dcf.originatorMacDataService packetFragmented:count 0
attr title "packets fragmented, count"
scalar WiredAndWirelessHostsWithAP.wirelessHost[2].wlan[0].mac.dcf.recipientMacDataService packetDeaggregated:count 0
attr title "packets deaggregated, count"
scalar WiredAndWirelessHostsWithAP.wirelessHost[2].wlan[0].mac.dcf.recipientMacDataService packetDefragmented:count 461
attr title "packets defragmented, count"
scalar WiredAndWirelessHostsWithAP.wirelessHost[2].wlan[0].mac.dcf.recipientMacDataService packetDropDuplicateDetected:count 0
attr interpolationmode none
attr source packetDropReasonIsDuplicateDetected(packetDropped)
attr title "packet drops: duplicate detected, count"
scalar WiredAndWirelessHostsWithAP.wirelessHost[2].wlan[0].mac.dcf.recipientMacDataService packetDropDuplicateDetected:sum(packetBytes) 0
attr interpolationmode none
attr source packetDropReasonIsDuplicateDetected(packetDropped)
attr title "packet drops: duplicate detected, sum(packetBytes)"
scalar WiredAndWirelessHostsWithAP.wirelessHost[2].wlan[0].mac.dcf.recoveryProcedure retryLimitReached:count 0
attr title "retry limit reached, count"
scalar WiredAndWirelessHostsWithAP.wirelessHost[2].wlan[0].mac.dcf frameSequenceFinished:count 118
attr title "finished frame sequences, count"
statistic WiredAndWirelessHostsWithAP.wirelessHost[2].wlan[0].mac.dcf frameSequenceDuration:histogram
field count 118
field mean 0.0010334157311949
field stddev 0.00019836689482821
field min 3.8e-05
field max 0.001107874452
field sum 0.121943056281
field sqrsum 0.00013062175539154
attr source frameSequenceDuration(frameSequenceFinished)
attr title "frame sequence durations, histogram"
bin	-inf	0
bin	0	0
bin	2e-05	1
bin	4e-05	0
bin	6e-05	0
bin	8e-05	3
bin	0.0001	0
bin	0.00012	0
bin	0.00014	0
bin	0.00016	0
bin	0.00018	0
bin	0.0002	0
bin	0.00022	0
bin	0.00024	0
bin	0.00026	0
bin	0.00028	0
bin	0.0003	0
bin	0.00032	0
bin	0.00034	0
bin	0.00036	0
bin	0.00038	0
bin	0.0004	0
bin	0.00042	0
bin	0.00044	0
bin	0.00046	0
bin	0.00048	0
bin	0.0005	0
[...]
scalar WiredAndWirelessHostsWithAP.accessPoint.wlan[0].mac packetDropRetryLimitReached:sum(packetBytes) 0
attr interpolationmode none
attr source packetDropReasonIsRetryLimitReached(packetDropped)
attr title "packet drops: retry limit reached, sum(packetBytes)"
scalar WiredAndWirelessHostsWithAP.accessPoint.wlan[0].mac packetDropDuplicateDetected:count 0
attr interpolationmode none
attr source packetDropReasonIsDuplicateDetected(packetDropped)
attr title "packet drops: duplicate detected, count"
scalar WiredAndWirelessHostsWithAP.accessPoint.wlan[0].mac packetDropDuplicateDetected:sum(packetBytes) 0
attr interpolationmode none
attr source packetDropReasonIsDuplicateDetected(packetDropped)
attr title "packet drops: duplicate detected, sum(packetBytes)"
scalar WiredAndWirelessHostsWithAP.accessPoint.wlan[0].mac packetDropOther:count 0
attr interpolationmode none
attr source packetDropReasonIsOther(packetDropped)
attr title "packet drops: other, count"
scalar WiredAndWirelessHostsWithAP.accessPoint.wlan[0].mac packetDropOther:sum(packetBytes) 0
attr interpolationmode none
attr source packetDropReasonIsOther(packetDropped)
attr title "packet drops: other, sum(packetBytes)"
scalar WiredAndWirelessHostsWithAP.accessPoint.wlan[0].mac linkBroken:count 0
attr interpolationmode none
attr title "link breaks, count"
statistic WiredAndWirelessHostsWithAP.accessPoint.wlan[0].radio radioChannel:histogram
field count 1
field mean 0
field stddev -nan
field min 0
field max 0
field sum 0
field sqrsum 0
attr interpolationmode sample-hold
attr source radioChannelChanged
attr title "Radio channel, histogram"
bin	-inf	0
bin	-0.5	0
bin	-0.48	0
bin	-0.46	0
bin	-0.44	0
bin	-0.42	0
bin	-0.4	0
bin	-0.38	0
bin	-0.36	0
bin	-0.34	0
bin	-0.32	0
bin	-0.3	0
bin	-0.28	0
bin	-0.26	0
bin	-0.24	0
bin	-0.22	0
bin	-0.2	0
bin	-0.18	0
bin	-0.16	0
bin	-0.14	0
bin	-0.12	0
bin	-0.1	0
bin	-0.08	0
bin	-0.06	0
bin	-0.04	0
bin	-0.02	0
bin	0	1
bin	0.02	0
bin	0.04	0
bin	0.06	0
bin	0.08	0
bin	0.1	0
bin	0.12	0
bin	0.14	0
bin	0.16	0
bin	0.18	0
bin	0.2	0
bin	0.22	0
bin	0.24	0
bin	0.26	0
bin	0.28	0
bin	0.3	0
bin	0.32	0
bin	0.34	0
bin	0.36	0
bin	0.38	0
bin	0.4	0
bin	0.42	0
bin	0.44	0
bin	0.46	0
bin	0.48	0
bin	0.5	0
scalar WiredAndWirelessHostsWithAP.accessPoint.wlan[0].radio radioMode:count 3743
attr interpolationmode sample-hold
attr source radioModeChanged
attr title "Radio mode, count"
scalar WiredAndWirelessHostsWithAP.accessPoint.wlan[0].radio receptionState:count 7937
attr interpolationmode sample-hold
attr source receptionStateChanged
attr title "Radio reception state, count"
scalar WiredAndWirelessHostsWithAP.accessPoint.wlan[0].radio transmissionState:count 7480
attr interpolationmode sample-hold
attr source transmissionStateChanged
attr title "Radio transmission state, count"
statistic WiredAndWirelessHostsWithAP.accessPoint.wlan[0].radio minSnir:histogram
field count 1875
field mean 10536.171950427
field stddev 19256.311964717
field min 0.095776263566648
field max 108670.71942474
field sum 19755322.407051
field sqrsum 903035075421.02
attr source minimumSnir(packetSentToUpper)
attr title "Min SNIR, histogram"
bin	-inf	0
bin	0	444
bin	2000	392
bin	4000	196
bin	6000	294
bin	8000	147
bin	10000	49
bin	12000	0
bin	14000	0
bin	16000	146
bin	18000	0
bin	20000	49
bin	22000	0
bin	24000	0
bin	26000	0
bin	28000	44
bin	30000	0
bin	32000	0
bin	34000	0
bin	36000	0
bin	38000	0
bin	40000	0
bin	42000	0
bin	44000	0
bin	46000	0
bin	48000	0
bin	50000	0
bin	52000	0
bin	54000	0
bin	56000	0
bin	58000	0
bin	60000	39
bin	62000	0
bin	64000	0
bin	66000	0
bin	68000	0
bin	70000	39
bin	72000	0
bin	74000	0
bin	76000	0
bin	78000	0
bin	80000	0
bin	82000	0
bin	84000	0
bin	86000	0
bin	88000	0
bin	90000	0
bin	92000	0
bin	94000	0
bin	96000	0
bin	98000	0
bin	100000	0
bin	102000	0
bin	104000	0
bin	106000	0
bin	108000	36
bin	110000	0
bin	112000	0
bin	114000	0
bin	116000	0
bin	118000	0
bin	120000	0
bin	122000	0
bin	124000	0
bin	126000	0
bin	128000	0
bin	130000	0
bin	132000	0
bin	134000	0
bin	136000	0
statistic WiredAndWirelessHostsWithAP.accessPoint.wlan[0].radio packetErrorRate:histogram
field count 1875
field mean 0.21320185518979
field stddev 0.40515020376421
field min 0
field max 1
field sum 399.75347848086
field sqrsum 392.83907581217
attr source packetErrorRate(packetSentToUpper)
attr title "Packet error rate, histogram"
bin	-inf	0
bin	-0.5	0
bin	-0.48	0
bin	-0.46	0
bin	-0.44	0
bin	-0.42	0
bin	-0.4	0
bin	-0.38	0
bin	-0.36	0
bin	-0.34	0
bin	-0.32	0
bin	-0.3	0
bin	-0.28	0
bin	-0.26	0
bin	-0.24	0
bin	-0.22	0
bin	-0.2	0
bin	-0.18	0
bin	-0.16	0
bin	-0.14	0
bin	-0.12	0
bin	-0.1	0
bin	-0.08	0
bin	-0.06	0
bin	-0.04	0
bin	-0.02	0
bin	0	1453
bin	0.02	2
bin	0.04	0
bin	0.06	0
bin	0.08	2
bin	0.1	1
bin	0.12	0
bin	0.14	3
bin	0.16	1
bin	0.18	1
bin	0.2	0
bin	0.22	3
bin	0.24	1
bin	0.26	0
bin	0.28	2
bin	0.3	0
bin	0.32	0
bin	0.34	2
bin	0.36	0
bin	0.38	2
bin	0.4	1
bin	0.42	2
bin	0.44	0
bin	0.46	1
bin	0.48	0
bin	0.5	0
bin	0.52	3
bin	0.54	0
bin	0.56	0
bin	0.58	0
bin	0.6	0
bin	0.62	0
bin	0.64	1
bin	0.66	0
bin	0.68	0
bin	0.7	2
bin	0.72	2
bin	0.74	2
bin	0.76	0
bin	0.78	0
bin	0.8	0
bin	0.82	1
bin	0.84	1
bin	0.86	0
bin	0.88	0
bin	0.9	0
bin	0.92	0
bin	0.94	4
bin	0.96	6
bin	0.98	47
bin	1	329
bin	1.02	0
statistic WiredAndWirelessHostsWithAP.accessPoint.wlan[0].radio bitErrorRate:histogram
field count 0
field mean -nan
field stddev nan
field min nan
field max nan
field sum 0
field sqrsum 0
attr source bitErrorRate(packetSentToUpper)
attr title "Bit error rate, histogram"
bin	-inf	0
bin	0	0
bin	1	0
statistic WiredAndWirelessHostsWithAP.accessPoint.wlan[0].radio symbolErrorRate:histogram
field count 0
field mean -nan
field stddev nan
field min nan
field max nan
field sum 0
field sqrsum 0
attr source symbolErrorRate(packetSentToUpper)
attr title "Symbol error rate, histogram"
bin	-inf	0
bin	0	0
bin	1	0
scalar WiredAndWirelessHostsWithAP.accessPoint.eth[0].mac.queue packetPopped:count 30
attr interpolationmode none
attr title "packet popped, count"
scalar WiredAndWirelessHostsWithAP.accessPoint.eth[0].mac.queue packetPopped:sum(packetBytes) 1920
attr interpolationmode none
attr title "packet popped, sum(packetBytes)"
statistic WiredAndWirelessHostsWithAP.accessPoint.eth[0].mac.queue queueingTime:histogram
field count 30
field mean 0
field stddev 0
field min 0
field max 0
field sum 0
field sqrsum 0
attr interpolationmode none
attr source queueingTime(packetPopped)
attr title "queueing times, histogram"
attr unit s
bin	-inf	0
bin	-0.5	0
bin	-0.48	0
bin	-0.46	0
bin	-0.44	0
bin	-0.42	0
bin	-0.4	0
bin	-0.38	0
bin	-0.36	0
bin	-0.34	0
bin	-0.32	0
bin	-0.3	0
bin	-0.28	0
bin	-0.26	0
bin	-0.24	0
bin	-0.22	0
bin	-0.2	0
bin	-0.18	0
bin	-0.16	0
bin	-0.14	0
bin	-0.12	0
bin	-0.1	0
bin	-0.08	0
bin	-0.06	0
bin	-0.04	0
bin	-0.02	0
bin	0	30
bin	0.02	0
bin	0.04	0
bin	0.06	0
bin	0.08	0
bin	0.1	0
bin	0.12	0
bin	0.14	0
bin	0.16	0
bin	0.18	0
bin	0.2	0
bin	0.22	0
bin	0.24	0
bin	0.26	0
bin	0.28	0
bin	0.3	0
bin	0.32	0
bin	0.34	0
bin	0.36	0
bin	0.38	0
bin	0.4	0
bin	0.42	0
bin	0.44	0
bin	0.46	0
bin	0.48	0
bin	0.5	0
scalar WiredAndWirelessHostsWithAP.accessPoint.eth[0].mac.queue queueLength:max 1
attr interpolationmode sample-hold
attr source "count(packetPushed) - count(packetPopped) - count(packetRemoved) - count(packetDropped)"
attr title "queue length, max"
scalar WiredAndWirelessHostsWithAP.accessPoint.eth[0].mac.queue queueLength:timeavg 0
attr interpolationmode sample-hold
attr source "count(packetPushed) - count(packetPopped) - count(packetRemoved) - count(packetDropped)"
attr title "queue length, timeavg"
scalar WiredAndWirelessHostsWithAP.accessPoint.eth[0].mac.queue packetPushed:count 30
attr interpolationmode none
attr title "packet pushed, count"
scalar WiredAndWirelessHostsWithAP.accessPoint.eth[0].mac.queue packetPushed:sum(packetBytes) 1920
attr interpolationmode none
attr title "packet pushed, sum(packetBytes)"
scalar WiredAndWirelessHostsWithAP.accessPoint.eth[0].mac.queue packetDropQueueOverflow:count 0
attr interpolationmode none
attr source packetDropReasonIsQueueOverflow(packetDropped)
attr title "packet drops: queue overflow, count"
scalar WiredAndWirelessHostsWithAP.accessPoint.eth[0].mac.queue packetDropQueueOverflow:sum(packetBytes) 0
attr interpolationmode none
attr source packetDropReasonIsQueueOverflow(packetDropped)
attr title "packet drops: queue overflow, sum(packetBytes)"
scalar WiredAndWirelessHostsWithAP.accessPoint.eth[0].mac.queue packetRemoved:count 0
attr interpolationmode none
attr title "packets removed, count"
scalar WiredAndWirelessHostsWithAP.accessPoint.eth[0].mac.queue packetRemoved:sum(packetBytes) 0
attr interpolationmode none
attr title "packets removed, sum(packetBytes)"
scalar WiredAndWirelessHostsWithAP.accessPoint.eth[0].mac "simulated time" 40
scalar WiredAndWirelessHostsWithAP.accessPoint.eth[0].mac full-duplex 1
scalar WiredAndWirelessHostsWithAP.accessPoint.eth[0].mac "frames/sec sent" 0.75
scalar WiredAndWirelessHostsWithAP.accessPoint.eth[0].mac "frames/sec rcvd" 0
scalar WiredAndWirelessHostsWithAP.accessPoint.eth[0].mac "bits/sec sent" 384
scalar WiredAndWirelessHostsWithAP.accessPoint.eth[0].mac "bits/sec rcvd" 0
scalar WiredAndWirelessHostsWithAP.accessPoint.eth[0].mac "rx channel idle (%)" 100
scalar WiredAndWirelessHostsWithAP.accessPoint.eth[0].mac "rx channel utilization (%)" 0
scalar WiredAndWirelessHostsWithAP.accessPoint.eth[0].mac rxPausePkUnits:count 0
attr interpolationmode none
attr title "pause units received, count"
scalar WiredAndWirelessHostsWithAP.accessPoint.eth[0].mac rxPausePkUnits:sum 0
attr interpolationmode none
attr title "pause units received, sum"
scalar WiredAndWirelessHostsWithAP.accessPoint.eth[0].mac txPausePkUnits:count 0
attr interpolationmode none
attr title "pause units sent, count"
scalar WiredAndWirelessHostsWithAP.accessPoint.eth[0].mac txPausePkUnits:sum 0
attr interpolationmode none
attr title "pause units sent, sum"
scalar WiredAndWirelessHostsWithAP.accessPoint.eth[0].mac rxPkOk:count 0
attr interpolationmode none
attr source rxPkOk
attr title "packets received OK, count"
scalar WiredAndWirelessHostsWithAP.accessPoint.eth[0].mac rxPkOk:sum(packetBytes) 0
attr interpolationmode none
attr source rxPkOk
attr title "packets received OK, sum(packetBytes)"
scalar WiredAndWirelessHostsWithAP.accessPoint.eth[0].mac txPk:count 30
attr interpolationmode none
attr source packetSentToLower
attr title "packets transmitted, count"
scalar WiredAndWirelessHostsWithAP.accessPoint.eth[0].mac txPk:sum(packetBytes) 1920
attr interpolationmode none
attr source packetSentToLower
attr title "packets transmitted, sum(packetBytes)"
scalar WiredAndWirelessHostsWithAP.accessPoint.eth[0].mac packetReceivedFromUpper:count 30
attr interpolationmode none
attr source packetReceivedFromUpper
attr title "packet bytes from higher layer, count"
scalar WiredAndWirelessHostsWithAP.accessPoint.eth[0].mac packetReceivedFromUpper:sum(packetBytes) 1380
attr interpolationmode none
attr source packetReceivedFromUpper
attr title "packet bytes from higher layer, sum(packetBytes)"
scalar WiredAndWirelessHostsWithAP.accessPoint.eth[0].mac passedUpPk:count 0
attr interpolationmode none
attr source packetSentToUpper
attr title "packets passed to higher layer, count"
scalar WiredAndWirelessHostsWithAP.accessPoint.eth[0].mac passedUpPk:sum(packetBytes) 0
attr interpolationmode none
attr source packetSentToUpper
attr title "packets passed to higher layer, sum(packetBytes)"
scalar WiredAndWirelessHostsWithAP.accessPoint.eth[0].mac packetDropIncorrectlyReceived:count 0
attr interpolationmode none
attr source packetDropReasonIsIncorrectlyReceived(packetDropped)
attr title "packet drop: incorrectly received, count"
scalar WiredAndWirelessHostsWithAP.accessPoint.eth[0].mac packetDropIncorrectlyReceived:sum(packetBytes) 0
attr interpolationmode none
attr source packetDropReasonIsIncorrectlyReceived(packetDropped)
attr title "packet drop: incorrectly received, sum(packetBytes)"
scalar WiredAndWirelessHostsWithAP.accessPoint.eth[0].mac packetDropInterfaceDown:count 0
attr interpolationmode none
attr source packetDropReasonIsInterfaceDown(packetDropped)
attr title "packet drop: interface down, count"
scalar WiredAndWirelessHostsWithAP.accessPoint.eth[0].mac packetDropInterfaceDown:sum(packetBytes) 0
attr interpolationmode none
attr source packetDropReasonIsInterfaceDown(packetDropped)
attr title "packet drop: interface down, sum(packetBytes)"
scalar WiredAndWirelessHostsWithAP.accessPoint.eth[0].mac packetDropNotAddressedToUs:count 0
attr interpolationmode none
attr source packetDropReasonIsNotAddressedToUs(packetDropped)
attr title "packet drop: not addressed to us, count"
scalar WiredAndWirelessHostsWithAP.accessPoint.eth[0].mac packetDropNotAddressedToUs:sum(packetBytes) 0
attr interpolationmode none
attr source packetDropReasonIsNotAddressedToUs(packetDropped)
attr title "packet drop: not addressed to us, sum(packetBytes)"
scalar WiredAndWirelessHostsWithAP.accessPoint.eth[1].mac.queue packetPopped:count 1200
attr interpolationmode none
attr title "packet popped, count"
scalar WiredAndWirelessHostsWithAP.accessPoint.eth[1].mac.queue packetPopped:sum(packetBytes) 172740
attr interpolationmode none
attr title "packet popped, sum(packetBytes)"
statistic WiredAndWirelessHostsWithAP.accessPoint.eth[1].mac.queue queueingTime:histogram
field count 1200
field mean 0
field stddev 0
field min 0
field max 0
field sum 0
field sqrsum 0
attr interpolationmode none
attr source queueingTime(packetPopped)
attr title "queueing times, histogram"
attr unit s
bin	-inf	0
bin	-0.5	0
bin	-0.48	0
bin	-0.46	0
bin	-0.44	0
bin	-0.42	0
bin	-0.4	0
bin	-0.38	0
bin	-0.36	0
bin	-0.34	0
bin	-0.32	0
bin	-0.3	0
bin	-0.28	0
bin	-0.26	0
bin	-0.24	0
bin	-0.22	0
bin	-0.2	0
bin	-0.18	0
bin	-0.16	0
bin	-0.14	0
bin	-0.12	0
bin	-0.1	0
bin	-0.08	0
bin	-0.06	0
bin	-0.04	0
bin	-0.02	0
bin	0	1200
bin	0.02	0
bin	0.04	0
bin	0.06	0
bin	0.08	0
bin	0.1	0
bin	0.12	0
bin	0.14	0
bin	0.16	0
bin	0.18	0
bin	0.2	0
bin	0.22	0
bin	0.24	0
bin	0.26	0
bin	0.28	0
bin	0.3	0
bin	0.32	0
bin	0.34	0
bin	0.36	0
bin	0.38	0
bin	0.4	0
bin	0.42	0
bin	0.44	0
bin	0.46	0
bin	0.48	0
bin	0.5	0
scalar WiredAndWirelessHostsWithAP.accessPoint.eth[1].mac.queue queueLength:max 1
attr interpolationmode sample-hold
attr source "count(packetPushed) - count(packetPopped) - count(packetRemoved) - count(packetDropped)"
attr title "queue length, max"
scalar WiredAndWirelessHostsWithAP.accessPoint.eth[1].mac.queue queueLength:timeavg 0
attr interpolationmode sample-hold
attr source "count(packetPushed) - count(packetPopped) - count(packetRemoved) - count(packetDropped)"
attr title "queue length, timeavg"
scalar WiredAndWirelessHostsWithAP.accessPoint.eth[1].mac.queue packetPushed:count 1200
attr interpolationmode none
attr title "packet pushed, count"
scalar WiredAndWirelessHostsWithAP.accessPoint.eth[1].mac.queue packetPushed:sum(packetBytes) 172740
attr interpolationmode none
attr title "packet pushed, sum(packetBytes)"
scalar WiredAndWirelessHostsWithAP.accessPoint.eth[1].mac.queue packetDropQueueOverflow:count 0
attr interpolationmode none
attr source packetDropReasonIsQueueOverflow(packetDropped)
attr title "packet drops: queue overflow, count"
scalar WiredAndWirelessHostsWithAP.accessPoint.eth[1].mac.queue packetDropQueueOverflow:sum(packetBytes) 0
attr interpolationmode none
attr source packetDropReasonIsQueueOverflow(packetDropped)
attr title "packet drops: queue overflow, sum(packetBytes)"
scalar WiredAndWirelessHostsWithAP.accessPoint.eth[1].mac.queue packetRemoved:count 0
attr interpolationmode none
attr title "packets removed, count"
scalar WiredAndWirelessHostsWithAP.accessPoint.eth[1].mac.queue packetRemoved:sum(packetBytes) 0
attr interpolationmode none
attr title "packets removed, sum(packetBytes)"
scalar WiredAndWirelessHostsWithAP.accessPoint.eth[1].mac "simulated time" 40
scalar WiredAndWirelessHostsWithAP.accessPoint.eth[1].mac full-duplex 1
scalar WiredAndWirelessHostsWithAP.accessPoint.eth[1].mac "frames/sec sent" 30
scalar WiredAndWirelessHostsWithAP.accessPoint.eth[1].mac "frames/sec rcvd" 0.75
scalar WiredAndWirelessHostsWithAP.accessPoint.eth[1].mac "bits/sec sent" 34548
scalar WiredAndWirelessHostsWithAP.accessPoint.eth[1].mac "bits/sec rcvd" 384
scalar WiredAndWirelessHostsWithAP.accessPoint.eth[1].mac "rx channel idle (%)" 100
scalar WiredAndWirelessHostsWithAP.accessPoint.eth[1].mac "rx channel utilization (%)" 0
scalar WiredAndWirelessHostsWithAP.accessPoint.eth[1].mac rxPausePkUnits:count 0
attr interpolationmode none
attr title "pause units received, count"
scalar WiredAndWirelessHostsWithAP.accessPoint.eth[1].mac rxPausePkUnits:sum 0
attr interpolationmode none
attr title "pause units received, sum"
scalar WiredAndWirelessHostsWithAP.accessPoint.eth[1].mac txPausePkUnits:count 0
attr interpolationmode none
attr title "pause units sent, count"
scalar WiredAndWirelessHostsWithAP.accessPoint.eth[1].mac txPausePkUnits:sum 0
attr interpolationmode none
attr title "pause units sent, sum"
scalar WiredAndWirelessHostsWithAP.accessPoint.eth[1].mac rxPkOk:count 30
attr interpolationmode none
attr source rxPkOk
attr title "packets received OK, count"
scalar WiredAndWirelessHostsWithAP.accessPoint.eth[1].mac rxPkOk:sum(packetBytes) 1920
attr interpolationmode none
attr source rxPkOk
attr title "packets received OK, sum(packetBytes)"
scalar WiredAndWirelessHostsWithAP.accessPoint.eth[1].mac txPk:count 1200
attr interpolationmode none
attr source packetSentToLower
attr title "packets transmitted, count"
scalar WiredAndWirelessHostsWithAP.accessPoint.eth[1].mac txPk:sum(packetBytes) 172740
attr interpolationmode none
attr source packetSentToLower
attr title "packets transmitted, sum(packetBytes)"
scalar WiredAndWirelessHostsWithAP.accessPoint.eth[1].mac packetReceivedFromUpper:count 1200
attr interpolationmode none
attr source packetReceivedFromUpper
attr title "packet bytes from higher layer, count"
scalar WiredAndWirelessHostsWithAP.accessPoint.eth[1].mac packetReceivedFromUpper:sum(packetBytes) 172200
attr interpolationmode none
attr source packetReceivedFromUpper
attr title "packet bytes from higher layer, sum(packetBytes)"
scalar WiredAndWirelessHostsWithAP.accessPoint.eth[1].mac passedUpPk:count 30
attr interpolationmode none
attr source packetSentToUpper
attr title "packets passed to higher layer, count"
scalar WiredAndWirelessHostsWithAP.accessPoint.eth[1].mac passedUpPk:sum(packetBytes) 1920
attr interpolationmode none
attr source packetSentToUpper
attr title "packets passed to higher layer, sum(packetBytes)"
scalar WiredAndWirelessHostsWithAP.accessPoint.eth[1].mac packetDropIncorrectlyReceived:count 0
attr interpolationmode none
attr source packetDropReasonIsIncorrectlyReceived(packetDropped)
attr title "packet drop: incorrectly received, count"
scalar WiredAndWirelessHostsWithAP.accessPoint.eth[1].mac packetDropIncorrectlyReceived:sum(packetBytes) 0
attr interpolationmode none
attr source packetDropReasonIsIncorrectlyReceived(packetDropped)
attr title "packet drop: incorrectly received, sum(packetBytes)"
scalar WiredAndWirelessHostsWithAP.accessPoint.eth[1].mac packetDropInterfaceDown:count 0
attr interpolationmode none
attr source packetDropReasonIsInterfaceDown(packetDropped)
attr title "packet drop: interface down, count"
scalar WiredAndWirelessHostsWithAP.accessPoint.eth[1].mac packetDropInterfaceDown:sum(packetBytes) 0
attr interpolationmode none
attr source packetDropReasonIsInterfaceDown(packetDropped)
attr title "packet drop: interface down, sum(packetBytes)"
scalar WiredAndWirelessHostsWithAP.accessPoint.eth[1].mac packetDropNotAddressedToUs:count 0
attr interpolationmode none
attr source packetDropReasonIsNotAddressedToUs(packetDropped)
attr title "packet drop: not addressed to us, count"
scalar WiredAndWirelessHostsWithAP.accessPoint.eth[1].mac packetDropNotAddressedToUs:sum(packetBytes) 0
attr interpolationmode none
attr source packetDropReasonIsNotAddressedToUs(packetDropped)
attr title "packet drop: not addressed to us, sum(packetBytes)"

