version 2
run WithBeaconing-0-20251015-16:44:50-4194
attr configname WithBeaconing
attr datetime 20251015-16:44:50
attr experiment WithBeaconing
attr inifile omnetpp.ini
attr iterationvars ""
attr iterationvarsf ""
attr measurement ""
attr network RSUExampleScenario
attr processid 4194
attr repetition 0
attr replication #0
attr resultdir results
attr runnumber 0
attr seedset 210041226
param *.node[*].appl.sendBeacons true
param *.playgroundSizeX 1700m
param *.playgroundSizeY 1700m
param *.playgroundSizeZ 50m
param *.annotations.draw true
param *.manager.updateInterval 0.1s
param *.manager.host "\"localhost\""
param *.manager.port 9999
param *.manager.autoShutdown true
param *.manager.launchConfig "xmldoc(\"simulation_freeway.launchd.xml\")"
param *.connectionManager.sendDirect true
param *.connectionManager.maxInterfDist 2600m
param *.connectionManager.drawMaxIntfDist false
param *.**.nic.mac1609_4.useServiceChannel false
param *.**.nic.mac1609_4.txPower 20mW
param *.**.nic.mac1609_4.bitrate 6Mbps
param *.**.nic.phy80211p.minPowerLevel -110dBm
param *.**.nic.phy80211p.useNoiseFloor true
param *.**.nic.phy80211p.noiseFloor -98dBm
param *.**.nic.phy80211p.decider "xmldoc(\"config.xml\")"
param *.**.nic.phy80211p.analogueModels "xmldoc(\"config.xml\")"
param *.**.nic.phy80211p.usePropagationDelay true
param *.**.nic.phy80211p.antenna "xmldoc(\"antenna.xml\", \"/root/Antenna[@id='monopole']\")"
param *.node[*].nic.phy80211p.antennaOffsetY "0 m"
param *.node[*].nic.phy80211p.antennaOffsetZ "1.895 m"
param *.node[*].applType "\"TraCIDemo11p\""
param *.node[*].appl.headerLength "80 bit"
param *.node[*].appl.sendBeacons false
param *.node[*].appl.dataOnSch false
param *.node[*].appl.beaconInterval 0.1s
param **.node[*].appl.dataUserPriority 5
param **.node[*].appl.beaconUserPriority 7
param *.node[*].veinsmobility.x 0
param *.node[*].veinsmobility.y 0
param *.node[*].veinsmobility.z 0
param *.node[*].veinsmobility.setHostSpeed false

scalar RSUExampleScenario.node[0].appl generatedWSMs 0
scalar RSUExampleScenario.node[0].appl receivedWSMs 0
scalar RSUExampleScenario.node[0].appl generatedBSMs 896
scalar RSUExampleScenario.node[0].appl receivedBSMs 30509
scalar RSUExampleScenario.node[0].appl generatedWSAs 0
scalar RSUExampleScenario.node[0].appl receivedWSAs 0
scalar RSUExampleScenario.node[0].nic.phy80211p busyTime 0.042634196428559
scalar RSUExampleScenario.node[0].nic.mac1609_4 ReceivedUnicastPackets 0
scalar RSUExampleScenario.node[0].nic.mac1609_4 ReceivedBroadcasts 30509
scalar RSUExampleScenario.node[0].nic.mac1609_4 SentPackets 896
scalar RSUExampleScenario.node[0].nic.mac1609_4 SentAcknowledgements 0
scalar RSUExampleScenario.node[0].nic.mac1609_4 RetriesExceeded 0
scalar RSUExampleScenario.node[0].nic.mac1609_4 SNIRLostPackets 6222
scalar RSUExampleScenario.node[0].nic.mac1609_4 RXTXLostPackets 0
scalar RSUExampleScenario.node[0].nic.mac1609_4 TotalLostPackets 6222
scalar RSUExampleScenario.node[0].nic.mac1609_4 DroppedPacketsInMac 0
scalar RSUExampleScenario.node[0].nic.mac1609_4 TooLittleTime 0
scalar RSUExampleScenario.node[0].nic.mac1609_4 TimesIntoBackoff 896
scalar RSUExampleScenario.node[0].nic.mac1609_4 SlotsBackoff 1371
scalar RSUExampleScenario.node[0].nic.mac1609_4 NumInternalContention 0
scalar RSUExampleScenario.node[0].nic.mac1609_4 totalBusyTime 3.914104
scalar RSUExampleScenario.node[0].nic.mac1609_4 retriesExceeded:count 0
attr source org_car2x_veins_modules_mac_sigRetriesExceeded
scalar RSUExampleScenario.node[0].nic.mac1609_4 sentAcks:count 0
attr source org_car2x_veins_modules_mac_sigSentAck
scalar RSUExampleScenario.node[0].nic.mac1609_4 sentPackets:count 896
attr source org_car2x_veins_modules_mac_sigSentPacket
scalar RSUExampleScenario.node[0].nic.mac1609_4 collisions:count 0
attr source org_car2x_veins_modules_mac_sigCollision
scalar RSUExampleScenario.node[0].nic.mac1609_4 channelBusy:timeavg 0.043684196428558
attr source org_car2x_veins_modules_mac_sigChannelBusy
scalar RSUExampleScenario.node[0].veinsmobility startTime 0.1
scalar RSUExampleScenario.node[0].veinsmobility totalTime 89.5
scalar RSUExampleScenario.node[0].veinsmobility stopTime 89.7
scalar RSUExampleScenario.node[0].veinsmobility minSpeed 11.038215416967
scalar RSUExampleScenario.node[0].veinsmobility maxSpeed 11.162842763285
scalar RSUExampleScenario.node[0].veinsmobility totalDistance 993.81958548469
scalar RSUExampleScenario.node[0].veinsmobility totalCO2Emission 179.54366696977
scalar RSUExampleScenario.node[1].appl generatedWSMs 0
scalar RSUExampleScenario.node[1].appl receivedWSMs 0
scalar RSUExampleScenario.node[1].appl generatedBSMs 955
scalar RSUExampleScenario.node[1].appl receivedBSMs 34210
scalar RSUExampleScenario.node[1].appl generatedWSAs 0
scalar RSUExampleScenario.node[1].appl receivedWSAs 0
scalar RSUExampleScenario.node[1].nic.phy80211p busyTime 0.045129465968583
scalar RSUExampleScenario.node[1].nic.mac1609_4 ReceivedUnicastPackets 0
scalar RSUExampleScenario.node[1].nic.mac1609_4 ReceivedBroadcasts 34210
scalar RSUExampleScenario.node[1].nic.mac1609_4 SentPackets 955
scalar RSUExampleScenario.node[1].nic.mac1609_4 SentAcknowledgements 0
scalar RSUExampleScenario.node[1].nic.mac1609_4 RetriesExceeded 0
scalar RSUExampleScenario.node[1].nic.mac1609_4 SNIRLostPackets 7231
scalar RSUExampleScenario.node[1].nic.mac1609_4 RXTXLostPackets 0
scalar RSUExampleScenario.node[1].nic.mac1609_4 TotalLostPackets 7231
scalar RSUExampleScenario.node[1].nic.mac1609_4 DroppedPacketsInMac 0
scalar RSUExampleScenario.node[1].nic.mac1609_4 TooLittleTime 0
scalar RSUExampleScenario.node[1].nic.mac1609_4 TimesIntoBackoff 1550
scalar RSUExampleScenario.node[1].nic.mac1609_4 SlotsBackoff 2273
scalar RSUExampleScenario.node[1].nic.mac1609_4 NumInternalContention 0
scalar RSUExampleScenario.node[1].nic.mac1609_4 totalBusyTime 4.410139
scalar RSUExampleScenario.node[1].nic.mac1609_4 retriesExceeded:count 0
attr source org_car2x_veins_modules_mac_sigRetriesExceeded
scalar RSUExampleScenario.node[1].nic.mac1609_4 sentAcks:count 0
attr source org_car2x_veins_modules_mac_sigSentAck
scalar RSUExampleScenario.node[1].nic.mac1609_4 sentPackets:count 955
attr source org_car2x_veins_modules_mac_sigSentPacket
scalar RSUExampleScenario.node[1].nic.mac1609_4 collisions:count 0
attr source org_car2x_veins_modules_mac_sigCollision
scalar RSUExampleScenario.node[1].nic.mac1609_4 channelBusy:timeavg 0.046179465968586
attr source org_car2x_veins_modules_mac_sigChannelBusy
scalar RSUExampleScenario.node[1].veinsmobility startTime 0.1
scalar RSUExampleScenario.node[1].veinsmobility totalTime 95.4
scalar RSUExampleScenario.node[1].veinsmobility stopTime 95.6
scalar RSUExampleScenario.node[1].veinsmobility minSpeed 10.359005425639
scalar RSUExampleScenario.node[1].veinsmobility maxSpeed 10.482994525567
scalar RSUExampleScenario.node[1].veinsmobility totalDistance 994.26686958338
scalar RSUExampleScenario.node[1].veinsmobility totalCO2Emission 183.66003608992
scalar RSUExampleScenario.node[2].appl generatedWSMs 0
scalar RSUExampleScenario.node[2].appl receivedWSMs 0
scalar RSUExampleScenario.node[2].appl generatedBSMs 975
scalar RSUExampleScenario.node[2].appl receivedBSMs 36620
scalar RSUExampleScenario.node[2].appl generatedWSAs 0
scalar RSUExampleScenario.node[2].appl receivedWSAs 0
scalar RSUExampleScenario.node[2].nic.phy80211p busyTime 0.047091200000005
scalar RSUExampleScenario.node[2].nic.mac1609_4 ReceivedUnicastPackets 0
scalar RSUExampleScenario.node[2].nic.mac1609_4 ReceivedBroadcasts 36620
scalar RSUExampleScenario.node[2].nic.mac1609_4 SentPackets 975
scalar RSUExampleScenario.node[2].nic.mac1609_4 SentAcknowledgements 0
scalar RSUExampleScenario.node[2].nic.mac1609_4 RetriesExceeded 0
scalar RSUExampleScenario.node[2].nic.mac1609_4 SNIRLostPackets 7528
scalar RSUExampleScenario.node[2].nic.mac1609_4 RXTXLostPackets 0
scalar RSUExampleScenario.node[2].nic.mac1609_4 TotalLostPackets 7528
scalar RSUExampleScenario.node[2].nic.mac1609_4 DroppedPacketsInMac 0
scalar RSUExampleScenario.node[2].nic.mac1609_4 TooLittleTime 0
scalar RSUExampleScenario.node[2].nic.mac1609_4 TimesIntoBackoff 975
scalar RSUExampleScenario.node[2].nic.mac1609_4 SlotsBackoff 1380
scalar RSUExampleScenario.node[2].nic.mac1609_4 NumInternalContention 0
scalar RSUExampleScenario.node[2].nic.mac1609_4 totalBusyTime 4.693767
scalar RSUExampleScenario.node[2].nic.mac1609_4 retriesExceeded:count 0
attr source org_car2x_veins_modules_mac_sigRetriesExceeded
scalar RSUExampleScenario.node[2].nic.mac1609_4 sentAcks:count 0
attr source org_car2x_veins_modules_mac_sigSentAck
scalar RSUExampleScenario.node[2].nic.mac1609_4 sentPackets:count 975
attr source org_car2x_veins_modules_mac_sigSentPacket
scalar RSUExampleScenario.node[2].nic.mac1609_4 collisions:count 0
attr source org_car2x_veins_modules_mac_sigCollision
scalar RSUExampleScenario.node[2].nic.mac1609_4 channelBusy:timeavg 0.048141200000008
attr source org_car2x_veins_modules_mac_sigChannelBusy
scalar RSUExampleScenario.node[2].veinsmobility startTime 1.4
scalar RSUExampleScenario.node[2].veinsmobility totalTime 97.4
scalar RSUExampleScenario.node[2].veinsmobility stopTime 98.9
scalar RSUExampleScenario.node[2].veinsmobility minSpeed 9.4068020538486
scalar RSUExampleScenario.node[2].veinsmobility maxSpeed 10.299516775541
scalar RSUExampleScenario.node[2].veinsmobility totalDistance 994.79406393975
scalar RSUExampleScenario.node[2].veinsmobility totalCO2Emission 189.60561905352
scalar RSUExampleScenario.node[3].appl generatedWSMs 0
scalar RSUExampleScenario.node[3].appl receivedWSMs 0
scalar RSUExampleScenario.node[3].appl generatedBSMs 992
scalar RSUExampleScenario.node[3].appl receivedBSMs 38740
scalar RSUExampleScenario.node[3].appl generatedWSAs 0
scalar RSUExampleScenario.node[3].appl receivedWSAs 0
scalar RSUExampleScenario.node[3].nic.phy80211p busyTime 0.048815000000013
scalar RSUExampleScenario.node[3].nic.mac1609_4 ReceivedUnicastPackets 0
scalar RSUExampleScenario.node[3].nic.mac1609_4 ReceivedBroadcasts 38740
scalar RSUExampleScenario.node[3].nic.mac1609_4 SentPackets 992
scalar RSUExampleScenario.node[3].nic.mac1609_4 SentAcknowledgements 0
scalar RSUExampleScenario.node[3].nic.mac1609_4 RetriesExceeded 0
scalar RSUExampleScenario.node[3].nic.mac1609_4 SNIRLostPackets 7822
scalar RSUExampleScenario.node[3].nic.mac1609_4 RXTXLostPackets 0
scalar RSUExampleScenario.node[3].nic.mac1609_4 TotalLostPackets 7822
scalar RSUExampleScenario.node[3].nic.mac1609_4 DroppedPacketsInMac 0
scalar RSUExampleScenario.node[3].nic.mac1609_4 TooLittleTime 0
scalar RSUExampleScenario.node[3].nic.mac1609_4 TimesIntoBackoff 992
scalar RSUExampleScenario.node[3].nic.mac1609_4 SlotsBackoff 1478
scalar RSUExampleScenario.node[3].nic.mac1609_4 NumInternalContention 0
scalar RSUExampleScenario.node[3].nic.mac1609_4 totalBusyTime 4.946608
scalar RSUExampleScenario.node[3].nic.mac1609_4 retriesExceeded:count 0
attr source org_car2x_veins_modules_mac_sigRetriesExceeded
scalar RSUExampleScenario.node[3].nic.mac1609_4 sentAcks:count 0
attr source org_car2x_veins_modules_mac_sigSentAck
scalar RSUExampleScenario.node[3].nic.mac1609_4 sentPackets:count 992
attr source org_car2x_veins_modules_mac_sigSentPacket
scalar RSUExampleScenario.node[3].nic.mac1609_4 collisions:count 0
attr source org_car2x_veins_modules_mac_sigCollision
scalar RSUExampleScenario.node[3].nic.mac1609_4 channelBusy:timeavg 0.049865000000016
attr source org_car2x_veins_modules_mac_sigChannelBusy
scalar RSUExampleScenario.node[3].veinsmobility startTime 2.6
scalar RSUExampleScenario.node[3].veinsmobility totalTime 99.1
scalar RSUExampleScenario.node[3].veinsmobility stopTime 101.8
scalar RSUExampleScenario.node[3].veinsmobility minSpeed 8.0590597729116
scalar RSUExampleScenario.node[3].veinsmobility maxSpeed 10.152615696908
scalar RSUExampleScenario.node[3].veinsmobility totalDistance 993.84320566937
scalar RSUExampleScenario.node[3].veinsmobility totalCO2Emission 194.26548777723
scalar RSUExampleScenario.node[5].appl generatedWSMs 0
scalar RSUExampleScenario.node[5].appl receivedWSMs 0
scalar RSUExampleScenario.node[5].appl generatedBSMs 995
scalar RSUExampleScenario.node[5].appl receivedBSMs 39959
scalar RSUExampleScenario.node[5].appl generatedWSAs 0
scalar RSUExampleScenario.node[5].appl receivedWSAs 0
scalar RSUExampleScenario.node[5].nic.phy80211p busyTime 0.050038110552781
scalar RSUExampleScenario.node[5].nic.mac1609_4 ReceivedUnicastPackets 0
scalar RSUExampleScenario.node[5].nic.mac1609_4 ReceivedBroadcasts 39959
scalar RSUExampleScenario.node[5].nic.mac1609_4 SentPackets 995
scalar RSUExampleScenario.node[5].nic.mac1609_4 SentAcknowledgements 0
scalar RSUExampleScenario.node[5].nic.mac1609_4 RetriesExceeded 0
scalar RSUExampleScenario.node[5].nic.mac1609_4 SNIRLostPackets 7914
scalar RSUExampleScenario.node[5].nic.mac1609_4 RXTXLostPackets 0
scalar RSUExampleScenario.node[5].nic.mac1609_4 TotalLostPackets 7914
scalar RSUExampleScenario.node[5].nic.mac1609_4 DroppedPacketsInMac 0
scalar RSUExampleScenario.node[5].nic.mac1609_4 TooLittleTime 0
scalar RSUExampleScenario.node[5].nic.mac1609_4 TimesIntoBackoff 995
scalar RSUExampleScenario.node[5].nic.mac1609_4 SlotsBackoff 1466
scalar RSUExampleScenario.node[5].nic.mac1609_4 NumInternalContention 0
scalar RSUExampleScenario.node[5].nic.mac1609_4 totalBusyTime 5.083267
scalar RSUExampleScenario.node[5].nic.mac1609_4 retriesExceeded:count 0
attr source org_car2x_veins_modules_mac_sigRetriesExceeded
scalar RSUExampleScenario.node[5].nic.mac1609_4 sentAcks:count 0
attr source org_car2x_veins_modules_mac_sigSentAck
scalar RSUExampleScenario.node[5].nic.mac1609_4 sentPackets:count 995
attr source org_car2x_veins_modules_mac_sigSentPacket
scalar RSUExampleScenario.node[5].nic.mac1609_4 collisions:count 0
attr source org_car2x_veins_modules_mac_sigCollision
scalar RSUExampleScenario.node[5].nic.mac1609_4 channelBusy:timeavg 0.051088110552784
attr source org_car2x_veins_modules_mac_sigChannelBusy
scalar RSUExampleScenario.node[5].veinsmobility startTime 3.9
scalar RSUExampleScenario.node[5].veinsmobility totalTime 99.4
scalar RSUExampleScenario.node[5].veinsmobility stopTime 103.4
scalar RSUExampleScenario.node[5].veinsmobility minSpeed 7.153988944976
scalar RSUExampleScenario.node[5].veinsmobility maxSpeed 11.551247667203
scalar RSUExampleScenario.node[5].veinsmobility totalDistance 993.75097311088
scalar RSUExampleScenario.node[5].veinsmobility totalCO2Emission 208.54100465117
scalar RSUExampleScenario.node[6].appl generatedWSMs 0
scalar RSUExampleScenario.node[6].appl receivedWSMs 0
scalar RSUExampleScenario.node[6].appl generatedBSMs 1069
scalar RSUExampleScenario.node[6].appl receivedBSMs 46398
scalar RSUExampleScenario.node[6].appl generatedWSAs 0
scalar RSUExampleScenario.node[6].appl receivedWSAs 0
scalar RSUExampleScenario.node[6].nic.phy80211p busyTime 0.053870832553828
scalar RSUExampleScenario.node[6].nic.mac1609_4 ReceivedUnicastPackets 0
scalar RSUExampleScenario.node[6].nic.mac1609_4 ReceivedBroadcasts 46398
scalar RSUExampleScenario.node[6].nic.mac1609_4 SentPackets 1069
scalar RSUExampleScenario.node[6].nic.mac1609_4 SentAcknowledgements 0
scalar RSUExampleScenario.node[6].nic.mac1609_4 RetriesExceeded 0
scalar RSUExampleScenario.node[6].nic.mac1609_4 SNIRLostPackets 8975
scalar RSUExampleScenario.node[6].nic.mac1609_4 RXTXLostPackets 0
scalar RSUExampleScenario.node[6].nic.mac1609_4 TotalLostPackets 8975
scalar RSUExampleScenario.node[6].nic.mac1609_4 DroppedPacketsInMac 0
scalar RSUExampleScenario.node[6].nic.mac1609_4 TooLittleTime 0
scalar RSUExampleScenario.node[6].nic.mac1609_4 TimesIntoBackoff 2038
scalar RSUExampleScenario.node[6].nic.mac1609_4 SlotsBackoff 3036
scalar RSUExampleScenario.node[6].nic.mac1609_4 NumInternalContention 0
scalar RSUExampleScenario.node[6].nic.mac1609_4 totalBusyTime 5.871037
scalar RSUExampleScenario.node[6].nic.mac1609_4 retriesExceeded:count 0
attr source org_car2x_veins_modules_mac_sigRetriesExceeded
scalar RSUExampleScenario.node[6].nic.mac1609_4 sentAcks:count 0
attr source org_car2x_veins_modules_mac_sigSentAck
scalar RSUExampleScenario.node[6].nic.mac1609_4 sentPackets:count 1069
attr source org_car2x_veins_modules_mac_sigSentPacket
scalar RSUExampleScenario.node[6].nic.mac1609_4 collisions:count 0
attr source org_car2x_veins_modules_mac_sigCollision
scalar RSUExampleScenario.node[6].nic.mac1609_4 channelBusy:timeavg 0.05492083255383
attr source org_car2x_veins_modules_mac_sigChannelBusy
scalar RSUExampleScenario.node[6].veinsmobility startTime 5.1
scalar RSUExampleScenario.node[6].veinsmobility totalTime 106.8
scalar RSUExampleScenario.node[6].veinsmobility stopTime 112
scalar RSUExampleScenario.node[6].veinsmobility minSpeed 5.9098244004137
scalar RSUExampleScenario.node[6].veinsmobility maxSpeed 9.4539283515246
scalar RSUExampleScenario.node[6].veinsmobility totalDistance 994.49645976498
scalar RSUExampleScenario.node[6].veinsmobility totalCO2Emission 203.83509235012
scalar RSUExampleScenario.node[8].appl generatedWSMs 0
scalar RSUExampleScenario.node[8].appl receivedWSMs 0
scalar RSUExampleScenario.node[8].appl generatedBSMs 1073
scalar RSUExampleScenario.node[8].appl receivedBSMs 47706
scalar RSUExampleScenario.node[8].appl generatedWSAs 0
scalar RSUExampleScenario.node[8].appl receivedWSAs 0
scalar RSUExampleScenario.node[8].nic.phy80211p busyTime 0.055090922646828
scalar RSUExampleScenario.node[8].nic.mac1609_4 ReceivedUnicastPackets 0
scalar RSUExampleScenario.node[8].nic.mac1609_4 ReceivedBroadcasts 47706
scalar RSUExampleScenario.node[8].nic.mac1609_4 SentPackets 1073
scalar RSUExampleScenario.node[8].nic.mac1609_4 SentAcknowledgements 0
scalar RSUExampleScenario.node[8].nic.mac1609_4 RetriesExceeded 0
scalar RSUExampleScenario.node[8].nic.mac1609_4 SNIRLostPackets 9133
scalar RSUExampleScenario.node[8].nic.mac1609_4 RXTXLostPackets 0
scalar RSUExampleScenario.node[8].nic.mac1609_4 TotalLostPackets 9133
scalar RSUExampleScenario.node[8].nic.mac1609_4 DroppedPacketsInMac 0
scalar RSUExampleScenario.node[8].nic.mac1609_4 TooLittleTime 0
scalar RSUExampleScenario.node[8].nic.mac1609_4 TimesIntoBackoff 1073
scalar RSUExampleScenario.node[8].nic.mac1609_4 SlotsBackoff 1577
scalar RSUExampleScenario.node[8].nic.mac1609_4 NumInternalContention 0
scalar RSUExampleScenario.node[8].nic.mac1609_4 totalBusyTime 6.023921
scalar RSUExampleScenario.node[8].nic.mac1609_4 retriesExceeded:count 0
attr source org_car2x_veins_modules_mac_sigRetriesExceeded
scalar RSUExampleScenario.node[8].nic.mac1609_4 sentAcks:count 0
attr source org_car2x_veins_modules_mac_sigSentAck
scalar RSUExampleScenario.node[8].nic.mac1609_4 sentPackets:count 1073
attr source org_car2x_veins_modules_mac_sigSentPacket
scalar RSUExampleScenario.node[8].nic.mac1609_4 collisions:count 0
attr source org_car2x_veins_modules_mac_sigCollision
scalar RSUExampleScenario.node[8].nic.mac1609_4 channelBusy:timeavg 0.05614092264683
attr source org_car2x_veins_modules_mac_sigChannelBusy
scalar RSUExampleScenario.node[8].veinsmobility startTime 6.4
scalar RSUExampleScenario.node[8].veinsmobility totalTime 107.2
scalar RSUExampleScenario.node[8].veinsmobility stopTime 113.7
scalar RSUExampleScenario.node[8].veinsmobility minSpeed 4.967479131264
scalar RSUExampleScenario.node[8].veinsmobility maxSpeed 10.525500722473
scalar RSUExampleScenario.node[8].veinsmobility totalDistance 994.71894788249
scalar RSUExampleScenario.node[8].veinsmobility totalCO2Emission 217.16183940411
scalar RSUExampleScenario.node[9].appl generatedWSMs 0
scalar RSUExampleScenario.node[9].appl receivedWSMs 0
scalar RSUExampleScenario.node[9].appl generatedBSMs 1074
scalar RSUExampleScenario.node[9].appl receivedBSMs 48870
scalar RSUExampleScenario.node[9].appl generatedWSAs 0
scalar RSUExampleScenario.node[9].appl receivedWSAs 0
scalar RSUExampleScenario.node[9].nic.phy80211p busyTime 0.056260707635057
scalar RSUExampleScenario.node[9].nic.mac1609_4 ReceivedUnicastPackets 0
scalar RSUExampleScenario.node[9].nic.mac1609_4 ReceivedBroadcasts 48870
scalar RSUExampleScenario.node[9].nic.mac1609_4 SentPackets 1074
scalar RSUExampleScenario.node[9].nic.mac1609_4 SentAcknowledgements 0
scalar RSUExampleScenario.node[9].nic.mac1609_4 RetriesExceeded 0
scalar RSUExampleScenario.node[9].nic.mac1609_4 SNIRLostPackets 9230
scalar RSUExampleScenario.node[9].nic.mac1609_4 RXTXLostPackets 0
scalar RSUExampleScenario.node[9].nic.mac1609_4 TotalLostPackets 9230
scalar RSUExampleScenario.node[9].nic.mac1609_4 DroppedPacketsInMac 0
scalar RSUExampleScenario.node[9].nic.mac1609_4 TooLittleTime 0
scalar RSUExampleScenario.node[9].nic.mac1609_4 TimesIntoBackoff 1074
scalar RSUExampleScenario.node[9].nic.mac1609_4 SlotsBackoff 1593
scalar RSUExampleScenario.node[9].nic.mac1609_4 NumInternalContention 0
scalar RSUExampleScenario.node[9].nic.mac1609_4 totalBusyTime 6.15517
scalar RSUExampleScenario.node[9].nic.mac1609_4 retriesExceeded:count 0
attr source org_car2x_veins_modules_mac_sigRetriesExceeded
scalar RSUExampleScenario.node[9].nic.mac1609_4 sentAcks:count 0
attr source org_car2x_veins_modules_mac_sigSentAck
scalar RSUExampleScenario.node[9].nic.mac1609_4 sentPackets:count 1074
attr source org_car2x_veins_modules_mac_sigSentPacket
scalar RSUExampleScenario.node[9].nic.mac1609_4 collisions:count 0
attr source org_car2x_veins_modules_mac_sigCollision
scalar RSUExampleScenario.node[9].nic.mac1609_4 channelBusy:timeavg 0.057310707635058
attr source org_car2x_veins_modules_mac_sigChannelBusy
scalar RSUExampleScenario.node[9].veinsmobility startTime 7.8
scalar RSUExampleScenario.node[9].veinsmobility totalTime 107.3
scalar RSUExampleScenario.node[9].veinsmobility stopTime 115.2
scalar RSUExampleScenario.node[9].veinsmobility minSpeed 4.279248732437
scalar RSUExampleScenario.node[9].veinsmobility maxSpeed 12.662234631002
scalar RSUExampleScenario.node[9].veinsmobility totalDistance 994.46219549245
scalar RSUExampleScenario.node[9].veinsmobility totalCO2Emission 227.9571870131
scalar RSUExampleScenario.node[4].appl generatedWSMs 0
scalar RSUExampleScenario.node[4].appl receivedWSMs 0
scalar RSUExampleScenario.node[4].appl generatedBSMs 1135
scalar RSUExampleScenario.node[4].appl receivedBSMs 49876
scalar RSUExampleScenario.node[4].appl generatedWSAs 0
scalar RSUExampleScenario.node[4].appl receivedWSAs 0
scalar RSUExampleScenario.node[4].nic.phy80211p busyTime 0.054670096916349
scalar RSUExampleScenario.node[4].nic.mac1609_4 ReceivedUnicastPackets 0
scalar RSUExampleScenario.node[4].nic.mac1609_4 ReceivedBroadcasts 49876
scalar RSUExampleScenario.node[4].nic.mac1609_4 SentPackets 1135
scalar RSUExampleScenario.node[4].nic.mac1609_4 SentAcknowledgements 0
scalar RSUExampleScenario.node[4].nic.mac1609_4 RetriesExceeded 0
scalar RSUExampleScenario.node[4].nic.mac1609_4 SNIRLostPackets 9788
scalar RSUExampleScenario.node[4].nic.mac1609_4 RXTXLostPackets 0
scalar RSUExampleScenario.node[4].nic.mac1609_4 TotalLostPackets 9788
scalar RSUExampleScenario.node[4].nic.mac1609_4 DroppedPacketsInMac 0
scalar RSUExampleScenario.node[4].nic.mac1609_4 TooLittleTime 0
scalar RSUExampleScenario.node[4].nic.mac1609_4 TimesIntoBackoff 1135
scalar RSUExampleScenario.node[4].nic.mac1609_4 SlotsBackoff 1725
scalar RSUExampleScenario.node[4].nic.mac1609_4 NumInternalContention 0
scalar RSUExampleScenario.node[4].nic.mac1609_4 totalBusyTime 6.324231
scalar RSUExampleScenario.node[4].nic.mac1609_4 retriesExceeded:count 0
attr source org_car2x_veins_modules_mac_sigRetriesExceeded
scalar RSUExampleScenario.node[4].nic.mac1609_4 sentAcks:count 0
attr source org_car2x_veins_modules_mac_sigSentAck
scalar RSUExampleScenario.node[4].nic.mac1609_4 sentPackets:count 1135
attr source org_car2x_veins_modules_mac_sigSentPacket
scalar RSUExampleScenario.node[4].nic.mac1609_4 collisions:count 0
attr source org_car2x_veins_modules_mac_sigCollision
scalar RSUExampleScenario.node[4].nic.mac1609_4 channelBusy:timeavg 0.055720096916351
attr source org_car2x_veins_modules_mac_sigChannelBusy
scalar RSUExampleScenario.node[4].veinsmobility startTime 3.1
scalar RSUExampleScenario.node[4].veinsmobility totalTime 113.4
scalar RSUExampleScenario.node[4].veinsmobility stopTime 116.6
scalar RSUExampleScenario.node[4].veinsmobility minSpeed 8.7062661340101
scalar RSUExampleScenario.node[4].veinsmobility maxSpeed 8.8311696493115
scalar RSUExampleScenario.node[4].veinsmobility totalDistance 994.53292855879
scalar RSUExampleScenario.node[4].veinsmobility totalCO2Emission 201.26216390913
scalar RSUExampleScenario.node[11].appl generatedWSMs 0
scalar RSUExampleScenario.node[11].appl receivedWSMs 0
scalar RSUExampleScenario.node[11].appl generatedBSMs 1075
scalar RSUExampleScenario.node[11].appl receivedBSMs 50028
scalar RSUExampleScenario.node[11].appl generatedWSAs 0
scalar RSUExampleScenario.node[11].appl receivedWSAs 0
scalar RSUExampleScenario.node[11].nic.phy80211p busyTime 0.05748926511633
scalar RSUExampleScenario.node[11].nic.mac1609_4 ReceivedUnicastPackets 0
scalar RSUExampleScenario.node[11].nic.mac1609_4 ReceivedBroadcasts 50028
scalar RSUExampleScenario.node[11].nic.mac1609_4 SentPackets 1075
scalar RSUExampleScenario.node[11].nic.mac1609_4 SentAcknowledgements 0
scalar RSUExampleScenario.node[11].nic.mac1609_4 RetriesExceeded 0
scalar RSUExampleScenario.node[11].nic.mac1609_4 SNIRLostPackets 9396
scalar RSUExampleScenario.node[11].nic.mac1609_4 RXTXLostPackets 0
scalar RSUExampleScenario.node[11].nic.mac1609_4 TotalLostPackets 9396
scalar RSUExampleScenario.node[11].nic.mac1609_4 DroppedPacketsInMac 0
scalar RSUExampleScenario.node[11].nic.mac1609_4 TooLittleTime 0
scalar RSUExampleScenario.node[11].nic.mac1609_4 TimesIntoBackoff 1075
scalar RSUExampleScenario.node[11].nic.mac1609_4 SlotsBackoff 1622
scalar RSUExampleScenario.node[11].nic.mac1609_4 NumInternalContention 0
scalar RSUExampleScenario.node[11].nic.mac1609_4 totalBusyTime 6.292971
scalar RSUExampleScenario.node[11].nic.mac1609_4 retriesExceeded:count 0
attr source org_car2x_veins_modules_mac_sigRetriesExceeded
scalar RSUExampleScenario.node[11].nic.mac1609_4 sentAcks:count 0
attr source org_car2x_veins_modules_mac_sigSentAck
scalar RSUExampleScenario.node[11].nic.mac1609_4 sentPackets:count 1075
attr source org_car2x_veins_modules_mac_sigSentPacket
scalar RSUExampleScenario.node[11].nic.mac1609_4 collisions:count 0
attr source org_car2x_veins_modules_mac_sigCollision
scalar RSUExampleScenario.node[11].nic.mac1609_4 channelBusy:timeavg 0.058539265116332
attr source org_car2x_veins_modules_mac_sigChannelBusy
scalar RSUExampleScenario.node[11].veinsmobility startTime 9.3
scalar RSUExampleScenario.node[11].veinsmobility totalTime 107.4
scalar RSUExampleScenario.node[11].veinsmobility stopTime 116.8
scalar RSUExampleScenario.node[11].veinsmobility minSpeed 3.9663348866678
scalar RSUExampleScenario.node[11].veinsmobility maxSpeed 11.24963114185
scalar RSUExampleScenario.node[11].veinsmobility totalDistance 993.94049582244
scalar RSUExampleScenario.node[11].veinsmobility totalCO2Emission 228.18877541177
scalar RSUExampleScenario.manager roiArea 0
scalar RSUExampleScenario.node[7].appl generatedWSMs 0
scalar RSUExampleScenario.node[7].appl receivedWSMs 0
scalar RSUExampleScenario.node[7].appl generatedBSMs 1139
scalar RSUExampleScenario.node[7].appl receivedBSMs 54554
scalar RSUExampleScenario.node[7].appl generatedWSAs 0
scalar RSUExampleScenario.node[7].appl receivedWSAs 0
scalar RSUExampleScenario.node[7].nic.phy80211p busyTime 0.057177172958793
scalar RSUExampleScenario.node[7].nic.mac1609_4 ReceivedUnicastPackets 0
scalar RSUExampleScenario.node[7].nic.mac1609_4 ReceivedBroadcasts 54554
scalar RSUExampleScenario.node[7].nic.mac1609_4 SentPackets 1139
scalar RSUExampleScenario.node[7].nic.mac1609_4 SentAcknowledgements 0
scalar RSUExampleScenario.node[7].nic.mac1609_4 RetriesExceeded 0
scalar RSUExampleScenario.node[7].nic.mac1609_4 SNIRLostPackets 8066
scalar RSUExampleScenario.node[7].nic.mac1609_4 RXTXLostPackets 0
scalar RSUExampleScenario.node[7].nic.mac1609_4 TotalLostPackets 8066
scalar RSUExampleScenario.node[7].nic.mac1609_4 DroppedPacketsInMac 0
scalar RSUExampleScenario.node[7].nic.mac1609_4 TooLittleTime 0
scalar RSUExampleScenario.node[7].nic.mac1609_4 TimesIntoBackoff 1139
scalar RSUExampleScenario.node[7].nic.mac1609_4 SlotsBackoff 1661
scalar RSUExampleScenario.node[7].nic.mac1609_4 NumInternalContention 0
scalar RSUExampleScenario.node[7].nic.mac1609_4 totalBusyTime 6.632075
scalar RSUExampleScenario.node[7].nic.mac1609_4 retriesExceeded:count 0
attr source org_car2x_veins_modules_mac_sigRetriesExceeded
scalar RSUExampleScenario.node[7].nic.mac1609_4 sentAcks:count 0
attr source org_car2x_veins_modules_mac_sigSentAck
scalar RSUExampleScenario.node[7].nic.mac1609_4 sentPackets:count 1139
attr source org_car2x_veins_modules_mac_sigSentPacket
scalar RSUExampleScenario.node[7].nic.mac1609_4 collisions:count 0
attr source org_car2x_veins_modules_mac_sigCollision
scalar RSUExampleScenario.node[7].nic.mac1609_4 channelBusy:timeavg 0.058227172958795
attr source org_car2x_veins_modules_mac_sigChannelBusy
scalar RSUExampleScenario.node[7].veinsmobility startTime 6.1
scalar RSUExampleScenario.node[7].veinsmobility totalTime 113.9
scalar RSUExampleScenario.node[7].veinsmobility stopTime 120
scalar RSUExampleScenario.node[7].veinsmobility minSpeed 7.519418447804
scalar RSUExampleScenario.node[7].veinsmobility maxSpeed 7.6441908424621
scalar RSUExampleScenario.node[7].veinsmobility totalDistance 863.52792432528
scalar RSUExampleScenario.node[7].veinsmobility totalCO2Emission 189.90891387486
scalar RSUExampleScenario.node[10].appl generatedWSMs 0
scalar RSUExampleScenario.node[10].appl receivedWSMs 0
scalar RSUExampleScenario.node[10].appl generatedBSMs 1109
scalar RSUExampleScenario.node[10].appl receivedBSMs 54439
scalar RSUExampleScenario.node[10].appl generatedWSAs 0
scalar RSUExampleScenario.node[10].appl receivedWSAs 0
scalar RSUExampleScenario.node[10].nic.phy80211p busyTime 0.058489449954973
scalar RSUExampleScenario.node[10].nic.mac1609_4 ReceivedUnicastPackets 0
scalar RSUExampleScenario.node[10].nic.mac1609_4 ReceivedBroadcasts 54439
scalar RSUExampleScenario.node[10].nic.mac1609_4 SentPackets 1109
scalar RSUExampleScenario.node[10].nic.mac1609_4 SentAcknowledgements 0
scalar RSUExampleScenario.node[10].nic.mac1609_4 RetriesExceeded 0
scalar RSUExampleScenario.node[10].nic.mac1609_4 SNIRLostPackets 7931
scalar RSUExampleScenario.node[10].nic.mac1609_4 RXTXLostPackets 0
scalar RSUExampleScenario.node[10].nic.mac1609_4 TotalLostPackets 7931
scalar RSUExampleScenario.node[10].nic.mac1609_4 DroppedPacketsInMac 0
scalar RSUExampleScenario.node[10].nic.mac1609_4 TooLittleTime 0
scalar RSUExampleScenario.node[10].nic.mac1609_4 TimesIntoBackoff 1109
scalar RSUExampleScenario.node[10].nic.mac1609_4 SlotsBackoff 1650
scalar RSUExampleScenario.node[10].nic.mac1609_4 NumInternalContention 0
scalar RSUExampleScenario.node[10].nic.mac1609_4 totalBusyTime 6.602925
scalar RSUExampleScenario.node[10].nic.mac1609_4 retriesExceeded:count 0
attr source org_car2x_veins_modules_mac_sigRetriesExceeded
scalar RSUExampleScenario.node[10].nic.mac1609_4 sentAcks:count 0
attr source org_car2x_veins_modules_mac_sigSentAck
scalar RSUExampleScenario.node[10].nic.mac1609_4 sentPackets:count 1109
attr source org_car2x_veins_modules_mac_sigSentPacket
scalar RSUExampleScenario.node[10].nic.mac1609_4 collisions:count 0
attr source org_car2x_veins_modules_mac_sigCollision
scalar RSUExampleScenario.node[10].nic.mac1609_4 channelBusy:timeavg 0.059539449954974
attr source org_car2x_veins_modules_mac_sigChannelBusy
scalar RSUExampleScenario.node[10].veinsmobility startTime 9.1
scalar RSUExampleScenario.node[10].veinsmobility totalTime 110.9
scalar RSUExampleScenario.node[10].veinsmobility stopTime 120
scalar RSUExampleScenario.node[10].veinsmobility minSpeed 7.4691384998547
scalar RSUExampleScenario.node[10].veinsmobility maxSpeed 9.3703491771643
scalar RSUExampleScenario.node[10].veinsmobility totalDistance 848.22444989424
scalar RSUExampleScenario.node[10].veinsmobility totalCO2Emission 197.27617878338
scalar RSUExampleScenario.node[12].appl generatedWSMs 0
scalar RSUExampleScenario.node[12].appl receivedWSMs 0
scalar RSUExampleScenario.node[12].appl generatedBSMs 1092
scalar RSUExampleScenario.node[12].appl receivedBSMs 52365
scalar RSUExampleScenario.node[12].appl generatedWSAs 0
scalar RSUExampleScenario.node[12].appl receivedWSAs 0
scalar RSUExampleScenario.node[12].nic.phy80211p busyTime 0.059223809523868
scalar RSUExampleScenario.node[12].nic.mac1609_4 ReceivedUnicastPackets 0
scalar RSUExampleScenario.node[12].nic.mac1609_4 ReceivedBroadcasts 52365
scalar RSUExampleScenario.node[12].nic.mac1609_4 SentPackets 1092
scalar RSUExampleScenario.node[12].nic.mac1609_4 SentAcknowledgements 0
scalar RSUExampleScenario.node[12].nic.mac1609_4 RetriesExceeded 0
scalar RSUExampleScenario.node[12].nic.mac1609_4 SNIRLostPackets 9820
scalar RSUExampleScenario.node[12].nic.mac1609_4 RXTXLostPackets 0
scalar RSUExampleScenario.node[12].nic.mac1609_4 TotalLostPackets 9820
scalar RSUExampleScenario.node[12].nic.mac1609_4 DroppedPacketsInMac 0
scalar RSUExampleScenario.node[12].nic.mac1609_4 TooLittleTime 0
scalar RSUExampleScenario.node[12].nic.mac1609_4 TimesIntoBackoff 1092
scalar RSUExampleScenario.node[12].nic.mac1609_4 SlotsBackoff 1636
scalar RSUExampleScenario.node[12].nic.mac1609_4 NumInternalContention 0
scalar RSUExampleScenario.node[12].nic.mac1609_4 totalBusyTime 6.5819
scalar RSUExampleScenario.node[12].nic.mac1609_4 retriesExceeded:count 0
attr source org_car2x_veins_modules_mac_sigRetriesExceeded
scalar RSUExampleScenario.node[12].nic.mac1609_4 sentAcks:count 0
attr source org_car2x_veins_modules_mac_sigSentAck
scalar RSUExampleScenario.node[12].nic.mac1609_4 sentPackets:count 1092
attr source org_car2x_veins_modules_mac_sigSentPacket
scalar RSUExampleScenario.node[12].nic.mac1609_4 collisions:count 0
attr source org_car2x_veins_modules_mac_sigCollision
scalar RSUExampleScenario.node[12].nic.mac1609_4 channelBusy:timeavg 0.06027380952387
attr source org_car2x_veins_modules_mac_sigChannelBusy
scalar RSUExampleScenario.node[12].veinsmobility startTime 10.8
scalar RSUExampleScenario.node[12].veinsmobility totalTime 109.2
scalar RSUExampleScenario.node[12].veinsmobility stopTime 120
scalar RSUExampleScenario.node[12].veinsmobility minSpeed 3.5185577345572
scalar RSUExampleScenario.node[12].veinsmobility maxSpeed 9.3188347523233
scalar RSUExampleScenario.node[12].veinsmobility totalDistance 990.15627707233
scalar RSUExampleScenario.node[12].veinsmobility totalCO2Emission 207.91917762891
scalar RSUExampleScenario.node[13].appl generatedWSMs 0
scalar RSUExampleScenario.node[13].appl receivedWSMs 0
scalar RSUExampleScenario.node[13].appl generatedBSMs 1079
scalar RSUExampleScenario.node[13].appl receivedBSMs 54296
scalar RSUExampleScenario.node[13].appl generatedWSAs 0
scalar RSUExampleScenario.node[13].appl receivedWSAs 0
scalar RSUExampleScenario.node[13].nic.phy80211p busyTime 0.059786987951866
scalar RSUExampleScenario.node[13].nic.mac1609_4 ReceivedUnicastPackets 0
scalar RSUExampleScenario.node[13].nic.mac1609_4 ReceivedBroadcasts 54296
scalar RSUExampleScenario.node[13].nic.mac1609_4 SentPackets 1079
scalar RSUExampleScenario.node[13].nic.mac1609_4 SentAcknowledgements 0
scalar RSUExampleScenario.node[13].nic.mac1609_4 RetriesExceeded 0
scalar RSUExampleScenario.node[13].nic.mac1609_4 SNIRLostPackets 7733
scalar RSUExampleScenario.node[13].nic.mac1609_4 RXTXLostPackets 0
scalar RSUExampleScenario.node[13].nic.mac1609_4 TotalLostPackets 7733
scalar RSUExampleScenario.node[13].nic.mac1609_4 DroppedPacketsInMac 0
scalar RSUExampleScenario.node[13].nic.mac1609_4 TooLittleTime 0
scalar RSUExampleScenario.node[13].nic.mac1609_4 TimesIntoBackoff 1079
scalar RSUExampleScenario.node[13].nic.mac1609_4 SlotsBackoff 1700
scalar RSUExampleScenario.node[13].nic.mac1609_4 NumInternalContention 0
scalar RSUExampleScenario.node[13].nic.mac1609_4 totalBusyTime 6.564311
scalar RSUExampleScenario.node[13].nic.mac1609_4 retriesExceeded:count 0
attr source org_car2x_veins_modules_mac_sigRetriesExceeded
scalar RSUExampleScenario.node[13].nic.mac1609_4 sentAcks:count 0
attr source org_car2x_veins_modules_mac_sigSentAck
scalar RSUExampleScenario.node[13].nic.mac1609_4 sentPackets:count 1079
attr source org_car2x_veins_modules_mac_sigSentPacket
scalar RSUExampleScenario.node[13].nic.mac1609_4 collisions:count 0
attr source org_car2x_veins_modules_mac_sigCollision
scalar RSUExampleScenario.node[13].nic.mac1609_4 channelBusy:timeavg 0.060836987951868
attr source org_car2x_veins_modules_mac_sigChannelBusy
scalar RSUExampleScenario.node[13].veinsmobility startTime 12.1
scalar RSUExampleScenario.node[13].veinsmobility totalTime 107.9
scalar RSUExampleScenario.node[13].veinsmobility stopTime 120
scalar RSUExampleScenario.node[13].veinsmobility minSpeed 7.4346271349134
scalar RSUExampleScenario.node[13].veinsmobility maxSpeed 10.373435305096
scalar RSUExampleScenario.node[13].veinsmobility totalDistance 832.9464139501
scalar RSUExampleScenario.node[13].veinsmobility totalCO2Emission 194.01650034884
scalar RSUExampleScenario.node[14].appl generatedWSMs 0
scalar RSUExampleScenario.node[14].appl receivedWSMs 0
scalar RSUExampleScenario.node[14].appl generatedBSMs 1076
scalar RSUExampleScenario.node[14].appl receivedBSMs 52676
scalar RSUExampleScenario.node[14].appl generatedWSAs 0
scalar RSUExampleScenario.node[14].appl receivedWSAs 0
scalar RSUExampleScenario.node[14].nic.phy80211p busyTime 0.059915985130171
scalar RSUExampleScenario.node[14].nic.mac1609_4 ReceivedUnicastPackets 0
scalar RSUExampleScenario.node[14].nic.mac1609_4 ReceivedBroadcasts 52676
scalar RSUExampleScenario.node[14].nic.mac1609_4 SentPackets 1076
scalar RSUExampleScenario.node[14].nic.mac1609_4 SentAcknowledgements 0
scalar RSUExampleScenario.node[14].nic.mac1609_4 RetriesExceeded 0
scalar RSUExampleScenario.node[14].nic.mac1609_4 SNIRLostPackets 9314
scalar RSUExampleScenario.node[14].nic.mac1609_4 RXTXLostPackets 0
scalar RSUExampleScenario.node[14].nic.mac1609_4 TotalLostPackets 9314
scalar RSUExampleScenario.node[14].nic.mac1609_4 DroppedPacketsInMac 0
scalar RSUExampleScenario.node[14].nic.mac1609_4 TooLittleTime 0
scalar RSUExampleScenario.node[14].nic.mac1609_4 TimesIntoBackoff 1076
scalar RSUExampleScenario.node[14].nic.mac1609_4 SlotsBackoff 1584
scalar RSUExampleScenario.node[14].nic.mac1609_4 NumInternalContention 0
scalar RSUExampleScenario.node[14].nic.mac1609_4 totalBusyTime 6.55994
scalar RSUExampleScenario.node[14].nic.mac1609_4 retriesExceeded:count 0
attr source org_car2x_veins_modules_mac_sigRetriesExceeded
scalar RSUExampleScenario.node[14].nic.mac1609_4 sentAcks:count 0
attr source org_car2x_veins_modules_mac_sigSentAck
scalar RSUExampleScenario.node[14].nic.mac1609_4 sentPackets:count 1076
attr source org_car2x_veins_modules_mac_sigSentPacket
scalar RSUExampleScenario.node[14].nic.mac1609_4 collisions:count 0
attr source org_car2x_veins_modules_mac_sigCollision
scalar RSUExampleScenario.node[14].nic.mac1609_4 channelBusy:timeavg 0.060965985130172
attr source org_car2x_veins_modules_mac_sigChannelBusy
scalar RSUExampleScenario.node[14].veinsmobility startTime 12.4
scalar RSUExampleScenario.node[14].veinsmobility totalTime 107.6
scalar RSUExampleScenario.node[14].veinsmobility stopTime 120
scalar RSUExampleScenario.node[14].veinsmobility minSpeed 3.2842394848252
scalar RSUExampleScenario.node[14].veinsmobility maxSpeed 9.3646049077344
scalar RSUExampleScenario.node[14].veinsmobility totalDistance 973.17247902889
scalar RSUExampleScenario.node[14].veinsmobility totalCO2Emission 214.55204284016
scalar RSUExampleScenario.node[15].appl generatedWSMs 0
scalar RSUExampleScenario.node[15].appl receivedWSMs 0
scalar RSUExampleScenario.node[15].appl generatedBSMs 1059
scalar RSUExampleScenario.node[15].appl receivedBSMs 52952
scalar RSUExampleScenario.node[15].appl generatedWSAs 0
scalar RSUExampleScenario.node[15].appl receivedWSAs 0
scalar RSUExampleScenario.node[15].nic.phy80211p busyTime 0.060644079320173
scalar RSUExampleScenario.node[15].nic.mac1609_4 ReceivedUnicastPackets 0
scalar RSUExampleScenario.node[15].nic.mac1609_4 ReceivedBroadcasts 52952
scalar RSUExampleScenario.node[15].nic.mac1609_4 SentPackets 1059
scalar RSUExampleScenario.node[15].nic.mac1609_4 SentAcknowledgements 0
scalar RSUExampleScenario.node[15].nic.mac1609_4 RetriesExceeded 0
scalar RSUExampleScenario.node[15].nic.mac1609_4 SNIRLostPackets 8800
scalar RSUExampleScenario.node[15].nic.mac1609_4 RXTXLostPackets 0
scalar RSUExampleScenario.node[15].nic.mac1609_4 TotalLostPackets 8800
scalar RSUExampleScenario.node[15].nic.mac1609_4 DroppedPacketsInMac 0
scalar RSUExampleScenario.node[15].nic.mac1609_4 TooLittleTime 0
scalar RSUExampleScenario.node[15].nic.mac1609_4 TimesIntoBackoff 1059
scalar RSUExampleScenario.node[15].nic.mac1609_4 SlotsBackoff 1596
scalar RSUExampleScenario.node[15].nic.mac1609_4 NumInternalContention 0
scalar RSUExampleScenario.node[15].nic.mac1609_4 totalBusyTime 6.533403
scalar RSUExampleScenario.node[15].nic.mac1609_4 retriesExceeded:count 0
attr source org_car2x_veins_modules_mac_sigRetriesExceeded
scalar RSUExampleScenario.node[15].nic.mac1609_4 sentAcks:count 0
attr source org_car2x_veins_modules_mac_sigSentAck
scalar RSUExampleScenario.node[15].nic.mac1609_4 sentPackets:count 1059
attr source org_car2x_veins_modules_mac_sigSentPacket
scalar RSUExampleScenario.node[15].nic.mac1609_4 collisions:count 0
attr source org_car2x_veins_modules_mac_sigCollision
scalar RSUExampleScenario.node[15].nic.mac1609_4 channelBusy:timeavg 0.061694079320174
attr source org_car2x_veins_modules_mac_sigChannelBusy
scalar RSUExampleScenario.node[15].veinsmobility startTime 14.1
scalar RSUExampleScenario.node[15].veinsmobility totalTime 105.9
scalar RSUExampleScenario.node[15].veinsmobility stopTime 120
scalar RSUExampleScenario.node[15].veinsmobility minSpeed 3.3287322264772
scalar RSUExampleScenario.node[15].veinsmobility maxSpeed 9.3842363517476
scalar RSUExampleScenario.node[15].veinsmobility totalDistance 956.180043187
scalar RSUExampleScenario.node[15].veinsmobility totalCO2Emission 214.48279012799
scalar RSUExampleScenario.node[16].appl generatedWSMs 0
scalar RSUExampleScenario.node[16].appl receivedWSMs 0
scalar RSUExampleScenario.node[16].appl generatedBSMs 1049
scalar RSUExampleScenario.node[16].appl receivedBSMs 54401
scalar RSUExampleScenario.node[16].appl generatedWSAs 0
scalar RSUExampleScenario.node[16].appl receivedWSAs 0
scalar RSUExampleScenario.node[16].nic.phy80211p busyTime 0.061073479504349
scalar RSUExampleScenario.node[16].nic.mac1609_4 ReceivedUnicastPackets 0
scalar RSUExampleScenario.node[16].nic.mac1609_4 ReceivedBroadcasts 54401
scalar RSUExampleScenario.node[16].nic.mac1609_4 SentPackets 1049
scalar RSUExampleScenario.node[16].nic.mac1609_4 SentAcknowledgements 0
scalar RSUExampleScenario.node[16].nic.mac1609_4 RetriesExceeded 0
scalar RSUExampleScenario.node[16].nic.mac1609_4 SNIRLostPackets 7201
scalar RSUExampleScenario.node[16].nic.mac1609_4 RXTXLostPackets 0
scalar RSUExampleScenario.node[16].nic.mac1609_4 TotalLostPackets 7201
scalar RSUExampleScenario.node[16].nic.mac1609_4 DroppedPacketsInMac 0
scalar RSUExampleScenario.node[16].nic.mac1609_4 TooLittleTime 0
scalar RSUExampleScenario.node[16].nic.mac1609_4 TimesIntoBackoff 1049
scalar RSUExampleScenario.node[16].nic.mac1609_4 SlotsBackoff 1526
scalar RSUExampleScenario.node[16].nic.mac1609_4 NumInternalContention 0
scalar RSUExampleScenario.node[16].nic.mac1609_4 totalBusyTime 6.516753
scalar RSUExampleScenario.node[16].nic.mac1609_4 retriesExceeded:count 0
attr source org_car2x_veins_modules_mac_sigRetriesExceeded
scalar RSUExampleScenario.node[16].nic.mac1609_4 sentAcks:count 0
attr source org_car2x_veins_modules_mac_sigSentAck
scalar RSUExampleScenario.node[16].nic.mac1609_4 sentPackets:count 1049
attr source org_car2x_veins_modules_mac_sigSentPacket
scalar RSUExampleScenario.node[16].nic.mac1609_4 collisions:count 0
attr source org_car2x_veins_modules_mac_sigCollision
scalar RSUExampleScenario.node[16].nic.mac1609_4 channelBusy:timeavg 0.062123479504351
attr source org_car2x_veins_modules_mac_sigChannelBusy
scalar RSUExampleScenario.node[16].veinsmobility startTime 15.1
scalar RSUExampleScenario.node[16].veinsmobility totalTime 104.9
scalar RSUExampleScenario.node[16].veinsmobility stopTime 120
scalar RSUExampleScenario.node[16].veinsmobility minSpeed 7.1171033371753
scalar RSUExampleScenario.node[16].veinsmobility maxSpeed 7.2419248168113
scalar RSUExampleScenario.node[16].veinsmobility totalDistance 753.24919037372
scalar RSUExampleScenario.node[16].veinsmobility totalCO2Emission 171.80301166475
scalar RSUExampleScenario.node[17].appl generatedWSMs 0
scalar RSUExampleScenario.node[17].appl receivedWSMs 0
scalar RSUExampleScenario.node[17].appl generatedBSMs 1042
scalar RSUExampleScenario.node[17].appl receivedBSMs 53094
scalar RSUExampleScenario.node[17].appl generatedWSAs 0
scalar RSUExampleScenario.node[17].appl receivedWSAs 0
scalar RSUExampleScenario.node[17].nic.phy80211p busyTime 0.06137197696743
scalar RSUExampleScenario.node[17].nic.mac1609_4 ReceivedUnicastPackets 0
scalar RSUExampleScenario.node[17].nic.mac1609_4 ReceivedBroadcasts 53094
scalar RSUExampleScenario.node[17].nic.mac1609_4 SentPackets 1042
scalar RSUExampleScenario.node[17].nic.mac1609_4 SentAcknowledgements 0
scalar RSUExampleScenario.node[17].nic.mac1609_4 RetriesExceeded 0
scalar RSUExampleScenario.node[17].nic.mac1609_4 SNIRLostPackets 8396
scalar RSUExampleScenario.node[17].nic.mac1609_4 RXTXLostPackets 0
scalar RSUExampleScenario.node[17].nic.mac1609_4 TotalLostPackets 8396
scalar RSUExampleScenario.node[17].nic.mac1609_4 DroppedPacketsInMac 0
scalar RSUExampleScenario.node[17].nic.mac1609_4 TooLittleTime 0
scalar RSUExampleScenario.node[17].nic.mac1609_4 TimesIntoBackoff 1042
scalar RSUExampleScenario.node[17].nic.mac1609_4 SlotsBackoff 1614
scalar RSUExampleScenario.node[17].nic.mac1609_4 NumInternalContention 0
scalar RSUExampleScenario.node[17].nic.mac1609_4 totalBusyTime 6.50437
scalar RSUExampleScenario.node[17].nic.mac1609_4 retriesExceeded:count 0
attr source org_car2x_veins_modules_mac_sigRetriesExceeded
scalar RSUExampleScenario.node[17].nic.mac1609_4 sentAcks:count 0
attr source org_car2x_veins_modules_mac_sigSentAck
scalar RSUExampleScenario.node[17].nic.mac1609_4 sentPackets:count 1042
attr source org_car2x_veins_modules_mac_sigSentPacket
scalar RSUExampleScenario.node[17].nic.mac1609_4 collisions:count 0
attr source org_car2x_veins_modules_mac_sigCollision
scalar RSUExampleScenario.node[17].nic.mac1609_4 channelBusy:timeavg 0.062421976967431
attr source org_car2x_veins_modules_mac_sigChannelBusy
scalar RSUExampleScenario.node[17].veinsmobility startTime 15.8
scalar RSUExampleScenario.node[17].veinsmobility totalTime 104.2
scalar RSUExampleScenario.node[17].veinsmobility stopTime 120
scalar RSUExampleScenario.node[17].veinsmobility minSpeed 3.2370241240295
scalar RSUExampleScenario.node[17].veinsmobility maxSpeed 9.396789609655
scalar RSUExampleScenario.node[17].veinsmobility totalDistance 939.16644485581
scalar RSUExampleScenario.node[17].veinsmobility totalCO2Emission 215.41715766022
scalar RSUExampleScenario.node[18].appl generatedWSMs 0
scalar RSUExampleScenario.node[18].appl receivedWSMs 0
scalar RSUExampleScenario.node[18].appl generatedBSMs 1025
scalar RSUExampleScenario.node[18].appl receivedBSMs 53335
scalar RSUExampleScenario.node[18].appl generatedWSAs 0
scalar RSUExampleScenario.node[18].appl receivedWSAs 0
scalar RSUExampleScenario.node[18].nic.phy80211p busyTime 0.062096624390303
scalar RSUExampleScenario.node[18].nic.mac1609_4 ReceivedUnicastPackets 0
scalar RSUExampleScenario.node[18].nic.mac1609_4 ReceivedBroadcasts 53335
scalar RSUExampleScenario.node[18].nic.mac1609_4 SentPackets 1025
scalar RSUExampleScenario.node[18].nic.mac1609_4 SentAcknowledgements 0
scalar RSUExampleScenario.node[18].nic.mac1609_4 RetriesExceeded 0
scalar RSUExampleScenario.node[18].nic.mac1609_4 SNIRLostPackets 7866
scalar RSUExampleScenario.node[18].nic.mac1609_4 RXTXLostPackets 0
scalar RSUExampleScenario.node[18].nic.mac1609_4 TotalLostPackets 7866
scalar RSUExampleScenario.node[18].nic.mac1609_4 DroppedPacketsInMac 0
scalar RSUExampleScenario.node[18].nic.mac1609_4 TooLittleTime 0
scalar RSUExampleScenario.node[18].nic.mac1609_4 TimesIntoBackoff 1025
scalar RSUExampleScenario.node[18].nic.mac1609_4 SlotsBackoff 1489
scalar RSUExampleScenario.node[18].nic.mac1609_4 NumInternalContention 0
scalar RSUExampleScenario.node[18].nic.mac1609_4 totalBusyTime 6.472529
scalar RSUExampleScenario.node[18].nic.mac1609_4 retriesExceeded:count 0
attr source org_car2x_veins_modules_mac_sigRetriesExceeded
scalar RSUExampleScenario.node[18].nic.mac1609_4 sentAcks:count 0
attr source org_car2x_veins_modules_mac_sigSentAck
scalar RSUExampleScenario.node[18].nic.mac1609_4 sentPackets:count 1025
attr source org_car2x_veins_modules_mac_sigSentPacket
scalar RSUExampleScenario.node[18].nic.mac1609_4 collisions:count 0
attr source org_car2x_veins_modules_mac_sigCollision
scalar RSUExampleScenario.node[18].nic.mac1609_4 channelBusy:timeavg 0.063146624390305
attr source org_car2x_veins_modules_mac_sigChannelBusy
scalar RSUExampleScenario.node[18].veinsmobility startTime 17.5
scalar RSUExampleScenario.node[18].veinsmobility totalTime 102.5
scalar RSUExampleScenario.node[18].veinsmobility stopTime 120
scalar RSUExampleScenario.node[18].veinsmobility minSpeed 3.1063619022791
scalar RSUExampleScenario.node[18].veinsmobility maxSpeed 9.4203557727903
scalar RSUExampleScenario.node[18].veinsmobility totalDistance 922.14722245314
scalar RSUExampleScenario.node[18].veinsmobility totalCO2Emission 212.08555830007
scalar RSUExampleScenario.node[19].appl generatedWSMs 0
scalar RSUExampleScenario.node[19].appl receivedWSMs 0
scalar RSUExampleScenario.node[19].appl generatedBSMs 1019
scalar RSUExampleScenario.node[19].appl receivedBSMs 54127
scalar RSUExampleScenario.node[19].appl generatedWSAs 0
scalar RSUExampleScenario.node[19].appl receivedWSAs 0
scalar RSUExampleScenario.node[19].nic.phy80211p busyTime 0.062352031403396
scalar RSUExampleScenario.node[19].nic.mac1609_4 ReceivedUnicastPackets 0
scalar RSUExampleScenario.node[19].nic.mac1609_4 ReceivedBroadcasts 54127
scalar RSUExampleScenario.node[19].nic.mac1609_4 SentPackets 1019
scalar RSUExampleScenario.node[19].nic.mac1609_4 SentAcknowledgements 0
scalar RSUExampleScenario.node[19].nic.mac1609_4 RetriesExceeded 0
scalar RSUExampleScenario.node[19].nic.mac1609_4 SNIRLostPackets 6966
scalar RSUExampleScenario.node[19].nic.mac1609_4 RXTXLostPackets 0
scalar RSUExampleScenario.node[19].nic.mac1609_4 TotalLostPackets 6966
scalar RSUExampleScenario.node[19].nic.mac1609_4 DroppedPacketsInMac 0
scalar RSUExampleScenario.node[19].nic.mac1609_4 TooLittleTime 0
scalar RSUExampleScenario.node[19].nic.mac1609_4 TimesIntoBackoff 1019
scalar RSUExampleScenario.node[19].nic.mac1609_4 SlotsBackoff 1585
scalar RSUExampleScenario.node[19].nic.mac1609_4 NumInternalContention 0
scalar RSUExampleScenario.node[19].nic.mac1609_4 totalBusyTime 6.460667
scalar RSUExampleScenario.node[19].nic.mac1609_4 retriesExceeded:count 0
attr source org_car2x_veins_modules_mac_sigRetriesExceeded
scalar RSUExampleScenario.node[19].nic.mac1609_4 sentAcks:count 0
attr source org_car2x_veins_modules_mac_sigSentAck
scalar RSUExampleScenario.node[19].nic.mac1609_4 sentPackets:count 1019
attr source org_car2x_veins_modules_mac_sigSentPacket
scalar RSUExampleScenario.node[19].nic.mac1609_4 collisions:count 0
attr source org_car2x_veins_modules_mac_sigCollision
scalar RSUExampleScenario.node[19].nic.mac1609_4 channelBusy:timeavg 0.063402031403398
attr source org_car2x_veins_modules_mac_sigChannelBusy
scalar RSUExampleScenario.node[19].veinsmobility startTime 18.1
scalar RSUExampleScenario.node[19].veinsmobility totalTime 101.9
scalar RSUExampleScenario.node[19].veinsmobility stopTime 120
scalar RSUExampleScenario.node[19].veinsmobility minSpeed 7.0752066799714
scalar RSUExampleScenario.node[19].veinsmobility maxSpeed 8.8520121613133
scalar RSUExampleScenario.node[19].veinsmobility totalDistance 738.34844727593
scalar RSUExampleScenario.node[19].veinsmobility totalCO2Emission 172.96978873315
scalar RSUExampleScenario.node[20].appl generatedWSMs 0
scalar RSUExampleScenario.node[20].appl receivedWSMs 0
scalar RSUExampleScenario.node[20].appl generatedBSMs 1007
scalar RSUExampleScenario.node[20].appl receivedBSMs 53438
scalar RSUExampleScenario.node[20].appl generatedWSAs 0
scalar RSUExampleScenario.node[20].appl receivedWSAs 0
scalar RSUExampleScenario.node[20].nic.phy80211p busyTime 0.062859582919622
scalar RSUExampleScenario.node[20].nic.mac1609_4 ReceivedUnicastPackets 0
scalar RSUExampleScenario.node[20].nic.mac1609_4 ReceivedBroadcasts 53438
scalar RSUExampleScenario.node[20].nic.mac1609_4 SentPackets 1007
scalar RSUExampleScenario.node[20].nic.mac1609_4 SentAcknowledgements 0
scalar RSUExampleScenario.node[20].nic.mac1609_4 RetriesExceeded 0
scalar RSUExampleScenario.node[20].nic.mac1609_4 SNIRLostPackets 7427
scalar RSUExampleScenario.node[20].nic.mac1609_4 RXTXLostPackets 0
scalar RSUExampleScenario.node[20].nic.mac1609_4 TotalLostPackets 7427
scalar RSUExampleScenario.node[20].nic.mac1609_4 DroppedPacketsInMac 0
scalar RSUExampleScenario.node[20].nic.mac1609_4 TooLittleTime 0
scalar RSUExampleScenario.node[20].nic.mac1609_4 TimesIntoBackoff 1007
scalar RSUExampleScenario.node[20].nic.mac1609_4 SlotsBackoff 1517
scalar RSUExampleScenario.node[20].nic.mac1609_4 NumInternalContention 0
scalar RSUExampleScenario.node[20].nic.mac1609_4 totalBusyTime 6.435695
scalar RSUExampleScenario.node[20].nic.mac1609_4 retriesExceeded:count 0
attr source org_car2x_veins_modules_mac_sigRetriesExceeded
scalar RSUExampleScenario.node[20].nic.mac1609_4 sentAcks:count 0
attr source org_car2x_veins_modules_mac_sigSentAck
scalar RSUExampleScenario.node[20].nic.mac1609_4 sentPackets:count 1007
attr source org_car2x_veins_modules_mac_sigSentPacket
scalar RSUExampleScenario.node[20].nic.mac1609_4 collisions:count 0
attr source org_car2x_veins_modules_mac_sigCollision
scalar RSUExampleScenario.node[20].nic.mac1609_4 channelBusy:timeavg 0.063909582919624
attr source org_car2x_veins_modules_mac_sigChannelBusy
scalar RSUExampleScenario.node[20].veinsmobility startTime 19.3
scalar RSUExampleScenario.node[20].veinsmobility totalTime 100.7
scalar RSUExampleScenario.node[20].veinsmobility stopTime 120
scalar RSUExampleScenario.node[20].veinsmobility minSpeed 3.1951497832943
scalar RSUExampleScenario.node[20].veinsmobility maxSpeed 9.3808610262877
scalar RSUExampleScenario.node[20].veinsmobility totalDistance 905.09802035067
scalar RSUExampleScenario.node[20].veinsmobility totalCO2Emission 207.25410858078
scalar RSUExampleScenario.node[21].appl generatedWSMs 0
scalar RSUExampleScenario.node[21].appl receivedWSMs 0
scalar RSUExampleScenario.node[21].appl generatedBSMs 989
scalar RSUExampleScenario.node[21].appl receivedBSMs 53786
scalar RSUExampleScenario.node[21].appl generatedWSAs 0
scalar RSUExampleScenario.node[21].appl receivedWSAs 0
scalar RSUExampleScenario.node[21].nic.phy80211p busyTime 0.063625075834235
scalar RSUExampleScenario.node[21].nic.mac1609_4 ReceivedUnicastPackets 0
scalar RSUExampleScenario.node[21].nic.mac1609_4 ReceivedBroadcasts 53786
scalar RSUExampleScenario.node[21].nic.mac1609_4 SentPackets 989
scalar RSUExampleScenario.node[21].nic.mac1609_4 SentAcknowledgements 0
scalar RSUExampleScenario.node[21].nic.mac1609_4 RetriesExceeded 0
scalar RSUExampleScenario.node[21].nic.mac1609_4 SNIRLostPackets 6719
scalar RSUExampleScenario.node[21].nic.mac1609_4 RXTXLostPackets 0
scalar RSUExampleScenario.node[21].nic.mac1609_4 TotalLostPackets 6719
scalar RSUExampleScenario.node[21].nic.mac1609_4 DroppedPacketsInMac 0
scalar RSUExampleScenario.node[21].nic.mac1609_4 TooLittleTime 0
scalar RSUExampleScenario.node[21].nic.mac1609_4 TimesIntoBackoff 989
scalar RSUExampleScenario.node[21].nic.mac1609_4 SlotsBackoff 1507
scalar RSUExampleScenario.node[21].nic.mac1609_4 NumInternalContention 0
scalar RSUExampleScenario.node[21].nic.mac1609_4 totalBusyTime 6.396365
scalar RSUExampleScenario.node[21].nic.mac1609_4 retriesExceeded:count 0
attr source org_car2x_veins_modules_mac_sigRetriesExceeded
scalar RSUExampleScenario.node[21].nic.mac1609_4 sentAcks:count 0
attr source org_car2x_veins_modules_mac_sigSentAck
scalar RSUExampleScenario.node[21].nic.mac1609_4 sentPackets:count 989
attr source org_car2x_veins_modules_mac_sigSentPacket
scalar RSUExampleScenario.node[21].nic.mac1609_4 collisions:count 0
attr source org_car2x_veins_modules_mac_sigCollision
scalar RSUExampleScenario.node[21].nic.mac1609_4 channelBusy:timeavg 0.064675075834237
attr source org_car2x_veins_modules_mac_sigChannelBusy
scalar RSUExampleScenario.node[21].veinsmobility startTime 21.1
scalar RSUExampleScenario.node[21].veinsmobility totalTime 98.9
scalar RSUExampleScenario.node[21].veinsmobility stopTime 120
scalar RSUExampleScenario.node[21].veinsmobility minSpeed 7.0612050228805
scalar RSUExampleScenario.node[21].veinsmobility maxSpeed 9.4067287822938
scalar RSUExampleScenario.node[21].veinsmobility totalDistance 723.48021875854
scalar RSUExampleScenario.node[21].veinsmobility totalCO2Emission 169.58974725937
scalar RSUExampleScenario.node[22].appl generatedWSMs 0
scalar RSUExampleScenario.node[22].appl receivedWSMs 0
scalar RSUExampleScenario.node[22].appl generatedBSMs 989
scalar RSUExampleScenario.node[22].appl receivedBSMs 53471
scalar RSUExampleScenario.node[22].appl generatedWSAs 0
scalar RSUExampleScenario.node[22].appl receivedWSAs 0
scalar RSUExampleScenario.node[22].nic.phy80211p busyTime 0.063625075834235
scalar RSUExampleScenario.node[22].nic.mac1609_4 ReceivedUnicastPackets 0
scalar RSUExampleScenario.node[22].nic.mac1609_4 ReceivedBroadcasts 53471
scalar RSUExampleScenario.node[22].nic.mac1609_4 SentPackets 989
scalar RSUExampleScenario.node[22].nic.mac1609_4 SentAcknowledgements 0
scalar RSUExampleScenario.node[22].nic.mac1609_4 RetriesExceeded 0
scalar RSUExampleScenario.node[22].nic.mac1609_4 SNIRLostPackets 7034
scalar RSUExampleScenario.node[22].nic.mac1609_4 RXTXLostPackets 0
scalar RSUExampleScenario.node[22].nic.mac1609_4 TotalLostPackets 7034
scalar RSUExampleScenario.node[22].nic.mac1609_4 DroppedPacketsInMac 0
scalar RSUExampleScenario.node[22].nic.mac1609_4 TooLittleTime 0
scalar RSUExampleScenario.node[22].nic.mac1609_4 TimesIntoBackoff 1925
scalar RSUExampleScenario.node[22].nic.mac1609_4 SlotsBackoff 2824
scalar RSUExampleScenario.node[22].nic.mac1609_4 NumInternalContention 0
scalar RSUExampleScenario.node[22].nic.mac1609_4 totalBusyTime 6.396365
scalar RSUExampleScenario.node[22].nic.mac1609_4 retriesExceeded:count 0
attr source org_car2x_veins_modules_mac_sigRetriesExceeded
scalar RSUExampleScenario.node[22].nic.mac1609_4 sentAcks:count 0
attr source org_car2x_veins_modules_mac_sigSentAck
scalar RSUExampleScenario.node[22].nic.mac1609_4 sentPackets:count 989
attr source org_car2x_veins_modules_mac_sigSentPacket
scalar RSUExampleScenario.node[22].nic.mac1609_4 collisions:count 0
attr source org_car2x_veins_modules_mac_sigCollision
scalar RSUExampleScenario.node[22].nic.mac1609_4 channelBusy:timeavg 0.064675075834237
attr source org_car2x_veins_modules_mac_sigChannelBusy
scalar RSUExampleScenario.node[22].veinsmobility startTime 21.1
scalar RSUExampleScenario.node[22].veinsmobility totalTime 98.9
scalar RSUExampleScenario.node[22].veinsmobility stopTime 120
scalar RSUExampleScenario.node[22].veinsmobility minSpeed 3.3088306911589
scalar RSUExampleScenario.node[22].veinsmobility maxSpeed 9.4079121267495
scalar RSUExampleScenario.node[22].veinsmobility totalDistance 888.06727232193
scalar RSUExampleScenario.node[22].veinsmobility totalCO2Emission 203.84304000511
scalar RSUExampleScenario.node[23].appl generatedWSMs 0
scalar RSUExampleScenario.node[23].appl receivedWSMs 0
scalar RSUExampleScenario.node[23].appl generatedBSMs 972
scalar RSUExampleScenario.node[23].appl receivedBSMs 53566
scalar RSUExampleScenario.node[23].appl generatedWSAs 0
scalar RSUExampleScenario.node[23].appl receivedWSAs 0
scalar RSUExampleScenario.node[23].nic.phy80211p busyTime 0.06433769547331
scalar RSUExampleScenario.node[23].nic.mac1609_4 ReceivedUnicastPackets 0
scalar RSUExampleScenario.node[23].nic.mac1609_4 ReceivedBroadcasts 53566
scalar RSUExampleScenario.node[23].nic.mac1609_4 SentPackets 972
scalar RSUExampleScenario.node[23].nic.mac1609_4 SentAcknowledgements 0
scalar RSUExampleScenario.node[23].nic.mac1609_4 RetriesExceeded 0
scalar RSUExampleScenario.node[23].nic.mac1609_4 SNIRLostPackets 6565
scalar RSUExampleScenario.node[23].nic.mac1609_4 RXTXLostPackets 0
scalar RSUExampleScenario.node[23].nic.mac1609_4 TotalLostPackets 6565
scalar RSUExampleScenario.node[23].nic.mac1609_4 DroppedPacketsInMac 0
scalar RSUExampleScenario.node[23].nic.mac1609_4 TooLittleTime 0
scalar RSUExampleScenario.node[23].nic.mac1609_4 TimesIntoBackoff 972
scalar RSUExampleScenario.node[23].nic.mac1609_4 SlotsBackoff 1444
scalar RSUExampleScenario.node[23].nic.mac1609_4 NumInternalContention 0
scalar RSUExampleScenario.node[23].nic.mac1609_4 totalBusyTime 6.355684
scalar RSUExampleScenario.node[23].nic.mac1609_4 retriesExceeded:count 0
attr source org_car2x_veins_modules_mac_sigRetriesExceeded
scalar RSUExampleScenario.node[23].nic.mac1609_4 sentAcks:count 0
attr source org_car2x_veins_modules_mac_sigSentAck
scalar RSUExampleScenario.node[23].nic.mac1609_4 sentPackets:count 972
attr source org_car2x_veins_modules_mac_sigSentPacket
scalar RSUExampleScenario.node[23].nic.mac1609_4 collisions:count 0
attr source org_car2x_veins_modules_mac_sigCollision
scalar RSUExampleScenario.node[23].nic.mac1609_4 channelBusy:timeavg 0.065387695473312
attr source org_car2x_veins_modules_mac_sigChannelBusy
scalar RSUExampleScenario.node[23].veinsmobility startTime 22.8
scalar RSUExampleScenario.node[23].veinsmobility totalTime 97.2
scalar RSUExampleScenario.node[23].veinsmobility stopTime 120
scalar RSUExampleScenario.node[23].veinsmobility minSpeed 3.0347544646622
scalar RSUExampleScenario.node[23].veinsmobility maxSpeed 9.4075089003126
scalar RSUExampleScenario.node[23].veinsmobility totalDistance 871.05914019953
scalar RSUExampleScenario.node[23].veinsmobility totalCO2Emission 204.02842008251
scalar RSUExampleScenario.node[24].appl generatedWSMs 0
scalar RSUExampleScenario.node[24].appl receivedWSMs 0
scalar RSUExampleScenario.node[24].appl generatedBSMs 959
scalar RSUExampleScenario.node[24].appl receivedBSMs 53340
scalar RSUExampleScenario.node[24].appl generatedWSAs 0
scalar RSUExampleScenario.node[24].appl receivedWSAs 0
scalar RSUExampleScenario.node[24].nic.phy80211p busyTime 0.064885589155429
scalar RSUExampleScenario.node[24].nic.mac1609_4 ReceivedUnicastPackets 0
scalar RSUExampleScenario.node[24].nic.mac1609_4 ReceivedBroadcasts 53340
scalar RSUExampleScenario.node[24].nic.mac1609_4 SentPackets 959
scalar RSUExampleScenario.node[24].nic.mac1609_4 SentAcknowledgements 0
scalar RSUExampleScenario.node[24].nic.mac1609_4 RetriesExceeded 0
scalar RSUExampleScenario.node[24].nic.mac1609_4 SNIRLostPackets 6492
scalar RSUExampleScenario.node[24].nic.mac1609_4 RXTXLostPackets 0
scalar RSUExampleScenario.node[24].nic.mac1609_4 TotalLostPackets 6492
scalar RSUExampleScenario.node[24].nic.mac1609_4 DroppedPacketsInMac 0
scalar RSUExampleScenario.node[24].nic.mac1609_4 TooLittleTime 0
scalar RSUExampleScenario.node[24].nic.mac1609_4 TimesIntoBackoff 959
scalar RSUExampleScenario.node[24].nic.mac1609_4 SlotsBackoff 1429
scalar RSUExampleScenario.node[24].nic.mac1609_4 NumInternalContention 0
scalar RSUExampleScenario.node[24].nic.mac1609_4 totalBusyTime 6.323223
scalar RSUExampleScenario.node[24].nic.mac1609_4 retriesExceeded:count 0
attr source org_car2x_veins_modules_mac_sigRetriesExceeded
scalar RSUExampleScenario.node[24].nic.mac1609_4 sentAcks:count 0
attr source org_car2x_veins_modules_mac_sigSentAck
scalar RSUExampleScenario.node[24].nic.mac1609_4 sentPackets:count 959
attr source org_car2x_veins_modules_mac_sigSentPacket
scalar RSUExampleScenario.node[24].nic.mac1609_4 collisions:count 0
attr source org_car2x_veins_modules_mac_sigCollision
scalar RSUExampleScenario.node[24].nic.mac1609_4 channelBusy:timeavg 0.065935589155431
attr source org_car2x_veins_modules_mac_sigChannelBusy
scalar RSUExampleScenario.node[24].veinsmobility startTime 24.1
scalar RSUExampleScenario.node[24].veinsmobility totalTime 95.9
scalar RSUExampleScenario.node[24].veinsmobility stopTime 120
scalar RSUExampleScenario.node[24].veinsmobility minSpeed 7.0263940421849
scalar RSUExampleScenario.node[24].veinsmobility maxSpeed 10.349358209259
scalar RSUExampleScenario.node[24].veinsmobility totalDistance 708.57677875952
scalar RSUExampleScenario.node[24].veinsmobility totalCO2Emission 166.65512239128
scalar RSUExampleScenario.node[25].appl generatedWSMs 0
scalar RSUExampleScenario.node[25].appl receivedWSMs 0
scalar RSUExampleScenario.node[25].appl generatedBSMs 954
scalar RSUExampleScenario.node[25].appl receivedBSMs 55611
scalar RSUExampleScenario.node[25].appl generatedWSAs 0
scalar RSUExampleScenario.node[25].appl receivedWSAs 0
scalar RSUExampleScenario.node[25].nic.phy80211p busyTime 0.065094842767354
scalar RSUExampleScenario.node[25].nic.mac1609_4 ReceivedUnicastPackets 0
scalar RSUExampleScenario.node[25].nic.mac1609_4 ReceivedBroadcasts 55611
scalar RSUExampleScenario.node[25].nic.mac1609_4 SentPackets 954
scalar RSUExampleScenario.node[25].nic.mac1609_4 SentAcknowledgements 0
scalar RSUExampleScenario.node[25].nic.mac1609_4 RetriesExceeded 0
scalar RSUExampleScenario.node[25].nic.mac1609_4 SNIRLostPackets 4101
scalar RSUExampleScenario.node[25].nic.mac1609_4 RXTXLostPackets 0
scalar RSUExampleScenario.node[25].nic.mac1609_4 TotalLostPackets 4101
scalar RSUExampleScenario.node[25].nic.mac1609_4 DroppedPacketsInMac 0
scalar RSUExampleScenario.node[25].nic.mac1609_4 TooLittleTime 0
scalar RSUExampleScenario.node[25].nic.mac1609_4 TimesIntoBackoff 954
scalar RSUExampleScenario.node[25].nic.mac1609_4 SlotsBackoff 1482
scalar RSUExampleScenario.node[25].nic.mac1609_4 NumInternalContention 0
scalar RSUExampleScenario.node[25].nic.mac1609_4 totalBusyTime 6.310218
scalar RSUExampleScenario.node[25].nic.mac1609_4 retriesExceeded:count 0
attr source org_car2x_veins_modules_mac_sigRetriesExceeded
scalar RSUExampleScenario.node[25].nic.mac1609_4 sentAcks:count 0
attr source org_car2x_veins_modules_mac_sigSentAck
scalar RSUExampleScenario.node[25].nic.mac1609_4 sentPackets:count 954
attr source org_car2x_veins_modules_mac_sigSentPacket
scalar RSUExampleScenario.node[25].nic.mac1609_4 collisions:count 0
attr source org_car2x_veins_modules_mac_sigCollision
scalar RSUExampleScenario.node[25].nic.mac1609_4 channelBusy:timeavg 0.066144842767356
attr source org_car2x_veins_modules_mac_sigChannelBusy
scalar RSUExampleScenario.node[25].veinsmobility startTime 24.6
scalar RSUExampleScenario.node[25].veinsmobility totalTime 95.4
scalar RSUExampleScenario.node[25].veinsmobility stopTime 120
scalar RSUExampleScenario.node[25].veinsmobility minSpeed 3.1185842002276
scalar RSUExampleScenario.node[25].veinsmobility maxSpeed 7.4924233918558
scalar RSUExampleScenario.node[25].veinsmobility totalDistance 700.16183686291
scalar RSUExampleScenario.node[25].veinsmobility totalCO2Emission 162.36947079807
scalar RSUExampleScenario.node[26].appl generatedWSMs 0
scalar RSUExampleScenario.node[26].appl receivedWSMs 0
scalar RSUExampleScenario.node[26].appl generatedBSMs 936
scalar RSUExampleScenario.node[26].appl receivedBSMs 55253
scalar RSUExampleScenario.node[26].appl generatedWSAs 0
scalar RSUExampleScenario.node[26].appl receivedWSAs 0
scalar RSUExampleScenario.node[26].nic.phy80211p busyTime 0.065846666666725
scalar RSUExampleScenario.node[26].nic.mac1609_4 ReceivedUnicastPackets 0
scalar RSUExampleScenario.node[26].nic.mac1609_4 ReceivedBroadcasts 55253
scalar RSUExampleScenario.node[26].nic.mac1609_4 SentPackets 936
scalar RSUExampleScenario.node[26].nic.mac1609_4 SentAcknowledgements 0
scalar RSUExampleScenario.node[26].nic.mac1609_4 RetriesExceeded 0
scalar RSUExampleScenario.node[26].nic.mac1609_4 SNIRLostPackets 4009
scalar RSUExampleScenario.node[26].nic.mac1609_4 RXTXLostPackets 0
scalar RSUExampleScenario.node[26].nic.mac1609_4 TotalLostPackets 4009
scalar RSUExampleScenario.node[26].nic.mac1609_4 DroppedPacketsInMac 0
scalar RSUExampleScenario.node[26].nic.mac1609_4 TooLittleTime 0
scalar RSUExampleScenario.node[26].nic.mac1609_4 TimesIntoBackoff 936
scalar RSUExampleScenario.node[26].nic.mac1609_4 SlotsBackoff 1430
scalar RSUExampleScenario.node[26].nic.mac1609_4 NumInternalContention 0
scalar RSUExampleScenario.node[26].nic.mac1609_4 totalBusyTime 6.261528
scalar RSUExampleScenario.node[26].nic.mac1609_4 retriesExceeded:count 0
attr source org_car2x_veins_modules_mac_sigRetriesExceeded
scalar RSUExampleScenario.node[26].nic.mac1609_4 sentAcks:count 0
attr source org_car2x_veins_modules_mac_sigSentAck
scalar RSUExampleScenario.node[26].nic.mac1609_4 sentPackets:count 936
attr source org_car2x_veins_modules_mac_sigSentPacket
scalar RSUExampleScenario.node[26].nic.mac1609_4 collisions:count 0
attr source org_car2x_veins_modules_mac_sigCollision
scalar RSUExampleScenario.node[26].nic.mac1609_4 channelBusy:timeavg 0.066896666666727
attr source org_car2x_veins_modules_mac_sigChannelBusy
scalar RSUExampleScenario.node[26].veinsmobility startTime 26.4
scalar RSUExampleScenario.node[26].veinsmobility totalTime 93.6
scalar RSUExampleScenario.node[26].veinsmobility stopTime 120
scalar RSUExampleScenario.node[26].veinsmobility minSpeed 3.3143957744022
scalar RSUExampleScenario.node[26].veinsmobility maxSpeed 7.5332959338453
scalar RSUExampleScenario.node[26].veinsmobility totalDistance 685.03149792625
scalar RSUExampleScenario.node[26].veinsmobility totalCO2Emission 165.25799208277
scalar RSUExampleScenario.node[27].appl generatedWSMs 0
scalar RSUExampleScenario.node[27].appl receivedWSMs 0
scalar RSUExampleScenario.node[27].appl generatedBSMs 929
scalar RSUExampleScenario.node[27].appl receivedBSMs 52862
scalar RSUExampleScenario.node[27].appl generatedWSAs 0
scalar RSUExampleScenario.node[27].appl receivedWSAs 0
scalar RSUExampleScenario.node[27].nic.phy80211p busyTime 0.06613907427347
scalar RSUExampleScenario.node[27].nic.mac1609_4 ReceivedUnicastPackets 0
scalar RSUExampleScenario.node[27].nic.mac1609_4 ReceivedBroadcasts 52862
scalar RSUExampleScenario.node[27].nic.mac1609_4 SentPackets 929
scalar RSUExampleScenario.node[27].nic.mac1609_4 SentAcknowledgements 0
scalar RSUExampleScenario.node[27].nic.mac1609_4 RetriesExceeded 0
scalar RSUExampleScenario.node[27].nic.mac1609_4 SNIRLostPackets 6218
scalar RSUExampleScenario.node[27].nic.mac1609_4 RXTXLostPackets 0
scalar RSUExampleScenario.node[27].nic.mac1609_4 TotalLostPackets 6218
scalar RSUExampleScenario.node[27].nic.mac1609_4 DroppedPacketsInMac 0
scalar RSUExampleScenario.node[27].nic.mac1609_4 TooLittleTime 0
scalar RSUExampleScenario.node[27].nic.mac1609_4 TimesIntoBackoff 929
scalar RSUExampleScenario.node[27].nic.mac1609_4 SlotsBackoff 1365
scalar RSUExampleScenario.node[27].nic.mac1609_4 NumInternalContention 0
scalar RSUExampleScenario.node[27].nic.mac1609_4 totalBusyTime 6.241865
scalar RSUExampleScenario.node[27].nic.mac1609_4 retriesExceeded:count 0
attr source org_car2x_veins_modules_mac_sigRetriesExceeded
scalar RSUExampleScenario.node[27].nic.mac1609_4 sentAcks:count 0
attr source org_car2x_veins_modules_mac_sigSentAck
scalar RSUExampleScenario.node[27].nic.mac1609_4 sentPackets:count 929
attr source org_car2x_veins_modules_mac_sigSentPacket
scalar RSUExampleScenario.node[27].nic.mac1609_4 collisions:count 0
attr source org_car2x_veins_modules_mac_sigCollision
scalar RSUExampleScenario.node[27].nic.mac1609_4 channelBusy:timeavg 0.067189074273472
attr source org_car2x_veins_modules_mac_sigChannelBusy
scalar RSUExampleScenario.node[27].veinsmobility startTime 27.1
scalar RSUExampleScenario.node[27].veinsmobility totalTime 92.9
scalar RSUExampleScenario.node[27].veinsmobility stopTime 120
scalar RSUExampleScenario.node[27].veinsmobility minSpeed 7.0528863407105
scalar RSUExampleScenario.node[27].veinsmobility maxSpeed 11.904029297778
scalar RSUExampleScenario.node[27].veinsmobility totalDistance 693.72007087089
scalar RSUExampleScenario.node[27].veinsmobility totalCO2Emission 161.15394706935
scalar RSUExampleScenario.node[28].appl generatedWSMs 0
scalar RSUExampleScenario.node[28].appl receivedWSMs 0
scalar RSUExampleScenario.node[28].appl generatedBSMs 918
scalar RSUExampleScenario.node[28].appl receivedBSMs 54820
scalar RSUExampleScenario.node[28].appl generatedWSAs 0
scalar RSUExampleScenario.node[28].appl receivedWSAs 0
scalar RSUExampleScenario.node[28].nic.phy80211p busyTime 0.066595119825766
scalar RSUExampleScenario.node[28].nic.mac1609_4 ReceivedUnicastPackets 0
scalar RSUExampleScenario.node[28].nic.mac1609_4 ReceivedBroadcasts 54820
scalar RSUExampleScenario.node[28].nic.mac1609_4 SentPackets 918
scalar RSUExampleScenario.node[28].nic.mac1609_4 SentAcknowledgements 0
scalar RSUExampleScenario.node[28].nic.mac1609_4 RetriesExceeded 0
scalar RSUExampleScenario.node[28].nic.mac1609_4 SNIRLostPackets 3963
scalar RSUExampleScenario.node[28].nic.mac1609_4 RXTXLostPackets 0
scalar RSUExampleScenario.node[28].nic.mac1609_4 TotalLostPackets 3963
scalar RSUExampleScenario.node[28].nic.mac1609_4 DroppedPacketsInMac 0
scalar RSUExampleScenario.node[28].nic.mac1609_4 TooLittleTime 0
scalar RSUExampleScenario.node[28].nic.mac1609_4 TimesIntoBackoff 918
scalar RSUExampleScenario.node[28].nic.mac1609_4 SlotsBackoff 1391
scalar RSUExampleScenario.node[28].nic.mac1609_4 NumInternalContention 0
scalar RSUExampleScenario.node[28].nic.mac1609_4 totalBusyTime 6.209822
scalar RSUExampleScenario.node[28].nic.mac1609_4 retriesExceeded:count 0
attr source org_car2x_veins_modules_mac_sigRetriesExceeded
scalar RSUExampleScenario.node[28].nic.mac1609_4 sentAcks:count 0
attr source org_car2x_veins_modules_mac_sigSentAck
scalar RSUExampleScenario.node[28].nic.mac1609_4 sentPackets:count 918
attr source org_car2x_veins_modules_mac_sigSentPacket
scalar RSUExampleScenario.node[28].nic.mac1609_4 collisions:count 0
attr source org_car2x_veins_modules_mac_sigCollision
scalar RSUExampleScenario.node[28].nic.mac1609_4 channelBusy:timeavg 0.067645119825767
attr source org_car2x_veins_modules_mac_sigChannelBusy
scalar RSUExampleScenario.node[28].veinsmobility startTime 28.2
scalar RSUExampleScenario.node[28].veinsmobility totalTime 91.8
scalar RSUExampleScenario.node[28].veinsmobility stopTime 120
scalar RSUExampleScenario.node[28].veinsmobility minSpeed 3.2020248368301
scalar RSUExampleScenario.node[28].veinsmobility maxSpeed 7.5526138934207
scalar RSUExampleScenario.node[28].veinsmobility totalDistance 669.86730879441
scalar RSUExampleScenario.node[28].veinsmobility totalCO2Emission 164.64808404574
scalar RSUExampleScenario.node[29].appl generatedWSMs 0
scalar RSUExampleScenario.node[29].appl receivedWSMs 0
scalar RSUExampleScenario.node[29].appl generatedBSMs 900
scalar RSUExampleScenario.node[29].appl receivedBSMs 54374
scalar RSUExampleScenario.node[29].appl generatedWSAs 0
scalar RSUExampleScenario.node[29].appl receivedWSAs 0
scalar RSUExampleScenario.node[29].nic.phy80211p busyTime 0.067344622222279
scalar RSUExampleScenario.node[29].nic.mac1609_4 ReceivedUnicastPackets 0
scalar RSUExampleScenario.node[29].nic.mac1609_4 ReceivedBroadcasts 54374
scalar RSUExampleScenario.node[29].nic.mac1609_4 SentPackets 900
scalar RSUExampleScenario.node[29].nic.mac1609_4 SentAcknowledgements 0
scalar RSUExampleScenario.node[29].nic.mac1609_4 RetriesExceeded 0
scalar RSUExampleScenario.node[29].nic.mac1609_4 SNIRLostPackets 3905
scalar RSUExampleScenario.node[29].nic.mac1609_4 RXTXLostPackets 0
scalar RSUExampleScenario.node[29].nic.mac1609_4 TotalLostPackets 3905
scalar RSUExampleScenario.node[29].nic.mac1609_4 DroppedPacketsInMac 0
scalar RSUExampleScenario.node[29].nic.mac1609_4 TooLittleTime 0
scalar RSUExampleScenario.node[29].nic.mac1609_4 TimesIntoBackoff 900
scalar RSUExampleScenario.node[29].nic.mac1609_4 SlotsBackoff 1322
scalar RSUExampleScenario.node[29].nic.mac1609_4 NumInternalContention 0
scalar RSUExampleScenario.node[29].nic.mac1609_4 totalBusyTime 6.155516
scalar RSUExampleScenario.node[29].nic.mac1609_4 retriesExceeded:count 0
attr source org_car2x_veins_modules_mac_sigRetriesExceeded
scalar RSUExampleScenario.node[29].nic.mac1609_4 sentAcks:count 0
attr source org_car2x_veins_modules_mac_sigSentAck
scalar RSUExampleScenario.node[29].nic.mac1609_4 sentPackets:count 900
attr source org_car2x_veins_modules_mac_sigSentPacket
scalar RSUExampleScenario.node[29].nic.mac1609_4 collisions:count 0
attr source org_car2x_veins_modules_mac_sigCollision
scalar RSUExampleScenario.node[29].nic.mac1609_4 channelBusy:timeavg 0.068394622222281
attr source org_car2x_veins_modules_mac_sigChannelBusy
scalar RSUExampleScenario.node[29].veinsmobility startTime 30
scalar RSUExampleScenario.node[29].veinsmobility totalTime 90
scalar RSUExampleScenario.node[29].veinsmobility stopTime 120
scalar RSUExampleScenario.node[29].veinsmobility minSpeed 3.2555737616727
scalar RSUExampleScenario.node[29].veinsmobility maxSpeed 7.5588115083283
scalar RSUExampleScenario.node[29].veinsmobility totalDistance 654.72829443432
scalar RSUExampleScenario.node[29].veinsmobility totalCO2Emission 162.4728575442
scalar RSUExampleScenario.node[30].appl generatedWSMs 0
scalar RSUExampleScenario.node[30].appl receivedWSMs 0
scalar RSUExampleScenario.node[30].appl generatedBSMs 899
scalar RSUExampleScenario.node[30].appl receivedBSMs 52256
scalar RSUExampleScenario.node[30].appl generatedWSAs 0
scalar RSUExampleScenario.node[30].appl receivedWSAs 0
scalar RSUExampleScenario.node[30].nic.phy80211p busyTime 0.067385984427198
scalar RSUExampleScenario.node[30].nic.mac1609_4 ReceivedUnicastPackets 0
scalar RSUExampleScenario.node[30].nic.mac1609_4 ReceivedBroadcasts 52256
scalar RSUExampleScenario.node[30].nic.mac1609_4 SentPackets 899
scalar RSUExampleScenario.node[30].nic.mac1609_4 SentAcknowledgements 0
scalar RSUExampleScenario.node[30].nic.mac1609_4 RetriesExceeded 0
scalar RSUExampleScenario.node[30].nic.mac1609_4 SNIRLostPackets 5994
scalar RSUExampleScenario.node[30].nic.mac1609_4 RXTXLostPackets 0
scalar RSUExampleScenario.node[30].nic.mac1609_4 TotalLostPackets 5994
scalar RSUExampleScenario.node[30].nic.mac1609_4 DroppedPacketsInMac 0
scalar RSUExampleScenario.node[30].nic.mac1609_4 TooLittleTime 0
scalar RSUExampleScenario.node[30].nic.mac1609_4 TimesIntoBackoff 899
scalar RSUExampleScenario.node[30].nic.mac1609_4 SlotsBackoff 1378
scalar RSUExampleScenario.node[30].nic.mac1609_4 NumInternalContention 0
scalar RSUExampleScenario.node[30].nic.mac1609_4 totalBusyTime 6.152395
scalar RSUExampleScenario.node[30].nic.mac1609_4 retriesExceeded:count 0
attr source org_car2x_veins_modules_mac_sigRetriesExceeded
scalar RSUExampleScenario.node[30].nic.mac1609_4 sentAcks:count 0
attr source org_car2x_veins_modules_mac_sigSentAck
scalar RSUExampleScenario.node[30].nic.mac1609_4 sentPackets:count 899
attr source org_car2x_veins_modules_mac_sigSentPacket
scalar RSUExampleScenario.node[30].nic.mac1609_4 collisions:count 0
attr source org_car2x_veins_modules_mac_sigCollision
scalar RSUExampleScenario.node[30].nic.mac1609_4 channelBusy:timeavg 0.0684359844272
attr source org_car2x_veins_modules_mac_sigChannelBusy
scalar RSUExampleScenario.node[30].veinsmobility startTime 30.1
scalar RSUExampleScenario.node[30].veinsmobility totalTime 89.9
scalar RSUExampleScenario.node[30].veinsmobility stopTime 120
scalar RSUExampleScenario.node[30].veinsmobility minSpeed 7.0383640710962
scalar RSUExampleScenario.node[30].veinsmobility maxSpeed 10.29230452339
[...]
scalar RSUExampleScenario.node[95].appl receivedWSAs 0
scalar RSUExampleScenario.node[95].nic.phy80211p busyTime 0.094781359223296
scalar RSUExampleScenario.node[95].nic.mac1609_4 ReceivedUnicastPackets 0
scalar RSUExampleScenario.node[95].nic.mac1609_4 ReceivedBroadcasts 6822
scalar RSUExampleScenario.node[95].nic.mac1609_4 SentPackets 103
scalar RSUExampleScenario.node[95].nic.mac1609_4 SentAcknowledgements 0
scalar RSUExampleScenario.node[95].nic.mac1609_4 RetriesExceeded 0
scalar RSUExampleScenario.node[95].nic.mac1609_4 SNIRLostPackets 2565
scalar RSUExampleScenario.node[95].nic.mac1609_4 RXTXLostPackets 0
scalar RSUExampleScenario.node[95].nic.mac1609_4 TotalLostPackets 2565
scalar RSUExampleScenario.node[95].nic.mac1609_4 DroppedPacketsInMac 0
scalar RSUExampleScenario.node[95].nic.mac1609_4 TooLittleTime 0
scalar RSUExampleScenario.node[95].nic.mac1609_4 TimesIntoBackoff 103
scalar RSUExampleScenario.node[95].nic.mac1609_4 SlotsBackoff 129
scalar RSUExampleScenario.node[95].nic.mac1609_4 NumInternalContention 0
scalar RSUExampleScenario.node[95].nic.mac1609_4 totalBusyTime 0.987063
scalar RSUExampleScenario.node[95].nic.mac1609_4 retriesExceeded:count 0
attr source org_car2x_veins_modules_mac_sigRetriesExceeded
scalar RSUExampleScenario.node[95].nic.mac1609_4 sentAcks:count 0
attr source org_car2x_veins_modules_mac_sigSentAck
scalar RSUExampleScenario.node[95].nic.mac1609_4 sentPackets:count 103
attr source org_car2x_veins_modules_mac_sigSentPacket
scalar RSUExampleScenario.node[95].nic.mac1609_4 collisions:count 0
attr source org_car2x_veins_modules_mac_sigCollision
scalar RSUExampleScenario.node[95].nic.mac1609_4 channelBusy:timeavg 0.095831359223296
attr source org_car2x_veins_modules_mac_sigChannelBusy
scalar RSUExampleScenario.node[95].veinsmobility startTime 109.7
scalar RSUExampleScenario.node[95].veinsmobility totalTime 10.3
scalar RSUExampleScenario.node[95].veinsmobility stopTime 120
scalar RSUExampleScenario.node[95].veinsmobility minSpeed 2.313726017571
scalar RSUExampleScenario.node[95].veinsmobility maxSpeed 6.4493674523846
scalar RSUExampleScenario.node[95].veinsmobility totalDistance 54.965148203932
scalar RSUExampleScenario.node[95].veinsmobility totalCO2Emission 19.445170661222
scalar RSUExampleScenario.node[96].appl generatedWSMs 0
scalar RSUExampleScenario.node[96].appl receivedWSMs 0
scalar RSUExampleScenario.node[96].appl generatedBSMs 89
scalar RSUExampleScenario.node[96].appl receivedBSMs 5334
scalar RSUExampleScenario.node[96].appl generatedWSAs 0
scalar RSUExampleScenario.node[96].appl receivedWSAs 0
scalar RSUExampleScenario.node[96].nic.phy80211p busyTime 0.094967191011231
scalar RSUExampleScenario.node[96].nic.mac1609_4 ReceivedUnicastPackets 0
scalar RSUExampleScenario.node[96].nic.mac1609_4 ReceivedBroadcasts 5334
scalar RSUExampleScenario.node[96].nic.mac1609_4 SentPackets 89
scalar RSUExampleScenario.node[96].nic.mac1609_4 SentAcknowledgements 0
scalar RSUExampleScenario.node[96].nic.mac1609_4 RetriesExceeded 0
scalar RSUExampleScenario.node[96].nic.mac1609_4 SNIRLostPackets 2793
scalar RSUExampleScenario.node[96].nic.mac1609_4 RXTXLostPackets 0
scalar RSUExampleScenario.node[96].nic.mac1609_4 TotalLostPackets 2793
scalar RSUExampleScenario.node[96].nic.mac1609_4 DroppedPacketsInMac 0
scalar RSUExampleScenario.node[96].nic.mac1609_4 TooLittleTime 0
scalar RSUExampleScenario.node[96].nic.mac1609_4 TimesIntoBackoff 89
scalar RSUExampleScenario.node[96].nic.mac1609_4 SlotsBackoff 132
scalar RSUExampleScenario.node[96].nic.mac1609_4 NumInternalContention 0
scalar RSUExampleScenario.node[96].nic.mac1609_4 totalBusyTime 0.854553
scalar RSUExampleScenario.node[96].nic.mac1609_4 retriesExceeded:count 0
attr source org_car2x_veins_modules_mac_sigRetriesExceeded
scalar RSUExampleScenario.node[96].nic.mac1609_4 sentAcks:count 0
attr source org_car2x_veins_modules_mac_sigSentAck
scalar RSUExampleScenario.node[96].nic.mac1609_4 sentPackets:count 89
attr source org_car2x_veins_modules_mac_sigSentPacket
scalar RSUExampleScenario.node[96].nic.mac1609_4 collisions:count 0
attr source org_car2x_veins_modules_mac_sigCollision
scalar RSUExampleScenario.node[96].nic.mac1609_4 channelBusy:timeavg 0.096017191011231
attr source org_car2x_veins_modules_mac_sigChannelBusy
scalar RSUExampleScenario.node[96].veinsmobility startTime 111.1
scalar RSUExampleScenario.node[96].veinsmobility totalTime 8.9
scalar RSUExampleScenario.node[96].veinsmobility stopTime 120
scalar RSUExampleScenario.node[96].veinsmobility minSpeed 11.339468339396
scalar RSUExampleScenario.node[96].veinsmobility maxSpeed 11.46419917751
scalar RSUExampleScenario.node[96].veinsmobility totalDistance 101.42370344624
scalar RSUExampleScenario.node[96].veinsmobility totalCO2Emission 18.250766975227
scalar RSUExampleScenario.node[97].appl generatedWSMs 0
scalar RSUExampleScenario.node[97].appl receivedWSMs 0
scalar RSUExampleScenario.node[97].appl generatedBSMs 81
scalar RSUExampleScenario.node[97].appl receivedBSMs 5326
scalar RSUExampleScenario.node[97].appl generatedWSAs 0
scalar RSUExampleScenario.node[97].appl receivedWSAs 0
scalar RSUExampleScenario.node[97].nic.phy80211p busyTime 0.094999506172835
scalar RSUExampleScenario.node[97].nic.mac1609_4 ReceivedUnicastPackets 0
scalar RSUExampleScenario.node[97].nic.mac1609_4 ReceivedBroadcasts 5326
scalar RSUExampleScenario.node[97].nic.mac1609_4 SentPackets 81
scalar RSUExampleScenario.node[97].nic.mac1609_4 SentAcknowledgements 0
scalar RSUExampleScenario.node[97].nic.mac1609_4 RetriesExceeded 0
scalar RSUExampleScenario.node[97].nic.mac1609_4 SNIRLostPackets 2073
scalar RSUExampleScenario.node[97].nic.mac1609_4 RXTXLostPackets 0
scalar RSUExampleScenario.node[97].nic.mac1609_4 TotalLostPackets 2073
scalar RSUExampleScenario.node[97].nic.mac1609_4 DroppedPacketsInMac 0
scalar RSUExampleScenario.node[97].nic.mac1609_4 TooLittleTime 0
scalar RSUExampleScenario.node[97].nic.mac1609_4 TimesIntoBackoff 162
scalar RSUExampleScenario.node[97].nic.mac1609_4 SlotsBackoff 247
scalar RSUExampleScenario.node[97].nic.mac1609_4 NumInternalContention 0
scalar RSUExampleScenario.node[97].nic.mac1609_4 totalBusyTime 0.778001
scalar RSUExampleScenario.node[97].nic.mac1609_4 retriesExceeded:count 0
attr source org_car2x_veins_modules_mac_sigRetriesExceeded
scalar RSUExampleScenario.node[97].nic.mac1609_4 sentAcks:count 0
attr source org_car2x_veins_modules_mac_sigSentAck
scalar RSUExampleScenario.node[97].nic.mac1609_4 sentPackets:count 81
attr source org_car2x_veins_modules_mac_sigSentPacket
scalar RSUExampleScenario.node[97].nic.mac1609_4 collisions:count 0
attr source org_car2x_veins_modules_mac_sigCollision
scalar RSUExampleScenario.node[97].nic.mac1609_4 channelBusy:timeavg 0.096049506172835
attr source org_car2x_veins_modules_mac_sigChannelBusy
scalar RSUExampleScenario.node[97].veinsmobility startTime 111.9
scalar RSUExampleScenario.node[97].veinsmobility totalTime 8.1
scalar RSUExampleScenario.node[97].veinsmobility stopTime 120
scalar RSUExampleScenario.node[97].veinsmobility minSpeed 2.5012135826379
scalar RSUExampleScenario.node[97].veinsmobility maxSpeed 6.2405063283394
scalar RSUExampleScenario.node[97].veinsmobility totalDistance 41.427311282935
scalar RSUExampleScenario.node[97].veinsmobility totalCO2Emission 15.485064757932
scalar RSUExampleScenario.node[98].appl generatedWSMs 0
scalar RSUExampleScenario.node[98].appl receivedWSMs 0
scalar RSUExampleScenario.node[98].appl generatedBSMs 60
scalar RSUExampleScenario.node[98].appl receivedBSMs 3920
scalar RSUExampleScenario.node[98].appl generatedWSAs 0
scalar RSUExampleScenario.node[98].appl receivedWSAs 0
scalar RSUExampleScenario.node[98].nic.phy80211p busyTime 0.095159999999996
scalar RSUExampleScenario.node[98].nic.mac1609_4 ReceivedUnicastPackets 0
scalar RSUExampleScenario.node[98].nic.mac1609_4 ReceivedBroadcasts 3920
scalar RSUExampleScenario.node[98].nic.mac1609_4 SentPackets 60
scalar RSUExampleScenario.node[98].nic.mac1609_4 SentAcknowledgements 0
scalar RSUExampleScenario.node[98].nic.mac1609_4 RetriesExceeded 0
scalar RSUExampleScenario.node[98].nic.mac1609_4 SNIRLostPackets 1570
scalar RSUExampleScenario.node[98].nic.mac1609_4 RXTXLostPackets 0
scalar RSUExampleScenario.node[98].nic.mac1609_4 TotalLostPackets 1570
scalar RSUExampleScenario.node[98].nic.mac1609_4 DroppedPacketsInMac 0
scalar RSUExampleScenario.node[98].nic.mac1609_4 TooLittleTime 0
scalar RSUExampleScenario.node[98].nic.mac1609_4 TimesIntoBackoff 60
scalar RSUExampleScenario.node[98].nic.mac1609_4 SlotsBackoff 94
scalar RSUExampleScenario.node[98].nic.mac1609_4 NumInternalContention 0
scalar RSUExampleScenario.node[98].nic.mac1609_4 totalBusyTime 0.57726
scalar RSUExampleScenario.node[98].nic.mac1609_4 retriesExceeded:count 0
attr source org_car2x_veins_modules_mac_sigRetriesExceeded
scalar RSUExampleScenario.node[98].nic.mac1609_4 sentAcks:count 0
attr source org_car2x_veins_modules_mac_sigSentAck
scalar RSUExampleScenario.node[98].nic.mac1609_4 sentPackets:count 60
attr source org_car2x_veins_modules_mac_sigSentPacket
scalar RSUExampleScenario.node[98].nic.mac1609_4 collisions:count 0
attr source org_car2x_veins_modules_mac_sigCollision
scalar RSUExampleScenario.node[98].nic.mac1609_4 channelBusy:timeavg 0.096209999999996
attr source org_car2x_veins_modules_mac_sigChannelBusy
scalar RSUExampleScenario.node[98].veinsmobility startTime 114
scalar RSUExampleScenario.node[98].veinsmobility totalTime 6
scalar RSUExampleScenario.node[98].veinsmobility stopTime 120
scalar RSUExampleScenario.node[98].veinsmobility minSpeed 2.4966923418506
scalar RSUExampleScenario.node[98].veinsmobility maxSpeed 5.9115856934629
scalar RSUExampleScenario.node[98].veinsmobility totalDistance 28.474306357035
scalar RSUExampleScenario.node[98].veinsmobility totalCO2Emission 11.593311205824
scalar RSUExampleScenario.node[99].appl generatedWSMs 0
scalar RSUExampleScenario.node[99].appl receivedWSMs 0
scalar RSUExampleScenario.node[99].appl generatedBSMs 59
scalar RSUExampleScenario.node[99].appl receivedBSMs 3367
scalar RSUExampleScenario.node[99].appl generatedWSAs 0
scalar RSUExampleScenario.node[99].appl receivedWSAs 0
scalar RSUExampleScenario.node[99].nic.phy80211p busyTime 0.095168813559318
scalar RSUExampleScenario.node[99].nic.mac1609_4 ReceivedUnicastPackets 0
scalar RSUExampleScenario.node[99].nic.mac1609_4 ReceivedBroadcasts 3367
scalar RSUExampleScenario.node[99].nic.mac1609_4 SentPackets 59
scalar RSUExampleScenario.node[99].nic.mac1609_4 SentAcknowledgements 0
scalar RSUExampleScenario.node[99].nic.mac1609_4 RetriesExceeded 0
scalar RSUExampleScenario.node[99].nic.mac1609_4 SNIRLostPackets 2032
scalar RSUExampleScenario.node[99].nic.mac1609_4 RXTXLostPackets 0
scalar RSUExampleScenario.node[99].nic.mac1609_4 TotalLostPackets 2032
scalar RSUExampleScenario.node[99].nic.mac1609_4 DroppedPacketsInMac 0
scalar RSUExampleScenario.node[99].nic.mac1609_4 TooLittleTime 0
scalar RSUExampleScenario.node[99].nic.mac1609_4 TimesIntoBackoff 118
scalar RSUExampleScenario.node[99].nic.mac1609_4 SlotsBackoff 165
scalar RSUExampleScenario.node[99].nic.mac1609_4 NumInternalContention 0
scalar RSUExampleScenario.node[99].nic.mac1609_4 totalBusyTime 0.567691
scalar RSUExampleScenario.node[99].nic.mac1609_4 retriesExceeded:count 0
attr source org_car2x_veins_modules_mac_sigRetriesExceeded
scalar RSUExampleScenario.node[99].nic.mac1609_4 sentAcks:count 0
attr source org_car2x_veins_modules_mac_sigSentAck
scalar RSUExampleScenario.node[99].nic.mac1609_4 sentPackets:count 59
attr source org_car2x_veins_modules_mac_sigSentPacket
scalar RSUExampleScenario.node[99].nic.mac1609_4 collisions:count 0
attr source org_car2x_veins_modules_mac_sigCollision
scalar RSUExampleScenario.node[99].nic.mac1609_4 channelBusy:timeavg 0.096218813559318
attr source org_car2x_veins_modules_mac_sigChannelBusy
scalar RSUExampleScenario.node[99].veinsmobility startTime 114.1
scalar RSUExampleScenario.node[99].veinsmobility totalTime 5.9
scalar RSUExampleScenario.node[99].veinsmobility stopTime 120
scalar RSUExampleScenario.node[99].veinsmobility minSpeed 9.7147915106634
scalar RSUExampleScenario.node[99].veinsmobility maxSpeed 9.8392280972057
scalar RSUExampleScenario.node[99].veinsmobility totalDistance 57.674049506222
scalar RSUExampleScenario.node[99].veinsmobility totalCO2Emission 11.171232359253
scalar RSUExampleScenario.node[100].appl generatedWSMs 0
scalar RSUExampleScenario.node[100].appl receivedWSMs 0
scalar RSUExampleScenario.node[100].appl generatedBSMs 39
scalar RSUExampleScenario.node[100].appl receivedBSMs 2542
scalar RSUExampleScenario.node[100].appl generatedWSAs 0
scalar RSUExampleScenario.node[100].appl receivedWSAs 0
scalar RSUExampleScenario.node[100].nic.phy80211p busyTime 0.095146666666663
scalar RSUExampleScenario.node[100].nic.mac1609_4 ReceivedUnicastPackets 0
scalar RSUExampleScenario.node[100].nic.mac1609_4 ReceivedBroadcasts 2542
scalar RSUExampleScenario.node[100].nic.mac1609_4 SentPackets 39
scalar RSUExampleScenario.node[100].nic.mac1609_4 SentAcknowledgements 0
scalar RSUExampleScenario.node[100].nic.mac1609_4 RetriesExceeded 0
scalar RSUExampleScenario.node[100].nic.mac1609_4 SNIRLostPackets 1026
scalar RSUExampleScenario.node[100].nic.mac1609_4 RXTXLostPackets 0
scalar RSUExampleScenario.node[100].nic.mac1609_4 TotalLostPackets 1026
scalar RSUExampleScenario.node[100].nic.mac1609_4 DroppedPacketsInMac 0
scalar RSUExampleScenario.node[100].nic.mac1609_4 TooLittleTime 0
scalar RSUExampleScenario.node[100].nic.mac1609_4 TimesIntoBackoff 39
scalar RSUExampleScenario.node[100].nic.mac1609_4 SlotsBackoff 55
scalar RSUExampleScenario.node[100].nic.mac1609_4 NumInternalContention 0
scalar RSUExampleScenario.node[100].nic.mac1609_4 totalBusyTime 0.375167
scalar RSUExampleScenario.node[100].nic.mac1609_4 retriesExceeded:count 0
attr source org_car2x_veins_modules_mac_sigRetriesExceeded
scalar RSUExampleScenario.node[100].nic.mac1609_4 sentAcks:count 0
attr source org_car2x_veins_modules_mac_sigSentAck
scalar RSUExampleScenario.node[100].nic.mac1609_4 sentPackets:count 39
attr source org_car2x_veins_modules_mac_sigSentPacket
scalar RSUExampleScenario.node[100].nic.mac1609_4 collisions:count 0
attr source org_car2x_veins_modules_mac_sigCollision
scalar RSUExampleScenario.node[100].nic.mac1609_4 channelBusy:timeavg 0.096196666666663
attr source org_car2x_veins_modules_mac_sigChannelBusy
scalar RSUExampleScenario.node[100].veinsmobility startTime 116.1
scalar RSUExampleScenario.node[100].veinsmobility totalTime 3.9
scalar RSUExampleScenario.node[100].veinsmobility stopTime 120
scalar RSUExampleScenario.node[100].veinsmobility minSpeed 2.4381046650856
scalar RSUExampleScenario.node[100].veinsmobility maxSpeed 5.4003404377845
scalar RSUExampleScenario.node[100].veinsmobility totalDistance 16.425543047526
scalar RSUExampleScenario.node[100].veinsmobility totalCO2Emission 7.9316496756203
scalar RSUExampleScenario.node[101].appl generatedWSMs 0
scalar RSUExampleScenario.node[101].appl receivedWSMs 0
scalar RSUExampleScenario.node[101].appl generatedBSMs 29
scalar RSUExampleScenario.node[101].appl receivedBSMs 1600
scalar RSUExampleScenario.node[101].appl generatedWSAs 0
scalar RSUExampleScenario.node[101].appl receivedWSAs 0
scalar RSUExampleScenario.node[101].nic.phy80211p busyTime 0.095249655172412
scalar RSUExampleScenario.node[101].nic.mac1609_4 ReceivedUnicastPackets 0
scalar RSUExampleScenario.node[101].nic.mac1609_4 ReceivedBroadcasts 1600
scalar RSUExampleScenario.node[101].nic.mac1609_4 SentPackets 29
scalar RSUExampleScenario.node[101].nic.mac1609_4 SentAcknowledgements 0
scalar RSUExampleScenario.node[101].nic.mac1609_4 RetriesExceeded 0
scalar RSUExampleScenario.node[101].nic.mac1609_4 SNIRLostPackets 1056
scalar RSUExampleScenario.node[101].nic.mac1609_4 RXTXLostPackets 0
scalar RSUExampleScenario.node[101].nic.mac1609_4 TotalLostPackets 1056
scalar RSUExampleScenario.node[101].nic.mac1609_4 DroppedPacketsInMac 0
scalar RSUExampleScenario.node[101].nic.mac1609_4 TooLittleTime 0
scalar RSUExampleScenario.node[101].nic.mac1609_4 TimesIntoBackoff 29
scalar RSUExampleScenario.node[101].nic.mac1609_4 SlotsBackoff 49
scalar RSUExampleScenario.node[101].nic.mac1609_4 NumInternalContention 0
scalar RSUExampleScenario.node[101].nic.mac1609_4 totalBusyTime 0.279269
scalar RSUExampleScenario.node[101].nic.mac1609_4 retriesExceeded:count 0
attr source org_car2x_veins_modules_mac_sigRetriesExceeded
scalar RSUExampleScenario.node[101].nic.mac1609_4 sentAcks:count 0
attr source org_car2x_veins_modules_mac_sigSentAck
scalar RSUExampleScenario.node[101].nic.mac1609_4 sentPackets:count 29
attr source org_car2x_veins_modules_mac_sigSentPacket
scalar RSUExampleScenario.node[101].nic.mac1609_4 collisions:count 0
attr source org_car2x_veins_modules_mac_sigCollision
scalar RSUExampleScenario.node[101].nic.mac1609_4 channelBusy:timeavg 0.096299655172412
attr source org_car2x_veins_modules_mac_sigChannelBusy
scalar RSUExampleScenario.node[101].veinsmobility startTime 117.1
scalar RSUExampleScenario.node[101].veinsmobility totalTime 2.9
scalar RSUExampleScenario.node[101].veinsmobility stopTime 120
scalar RSUExampleScenario.node[101].veinsmobility minSpeed 11.192635812984
scalar RSUExampleScenario.node[101].veinsmobility maxSpeed 12.246193870331
scalar RSUExampleScenario.node[101].veinsmobility totalDistance 33.937576475115
scalar RSUExampleScenario.node[101].veinsmobility totalCO2Emission 4.5445344746743
scalar RSUExampleScenario.node[102].appl generatedWSMs 0
scalar RSUExampleScenario.node[102].appl receivedWSMs 0
scalar RSUExampleScenario.node[102].appl generatedBSMs 17
scalar RSUExampleScenario.node[102].appl receivedBSMs 1105
scalar RSUExampleScenario.node[102].appl generatedWSAs 0
scalar RSUExampleScenario.node[102].appl receivedWSAs 0
scalar RSUExampleScenario.node[102].nic.phy80211p busyTime 0.095680000000001
scalar RSUExampleScenario.node[102].nic.mac1609_4 ReceivedUnicastPackets 0
scalar RSUExampleScenario.node[102].nic.mac1609_4 ReceivedBroadcasts 1105
scalar RSUExampleScenario.node[102].nic.mac1609_4 SentPackets 17
scalar RSUExampleScenario.node[102].nic.mac1609_4 SentAcknowledgements 0
scalar RSUExampleScenario.node[102].nic.mac1609_4 RetriesExceeded 0
scalar RSUExampleScenario.node[102].nic.mac1609_4 SNIRLostPackets 459
scalar RSUExampleScenario.node[102].nic.mac1609_4 RXTXLostPackets 0
scalar RSUExampleScenario.node[102].nic.mac1609_4 TotalLostPackets 459
scalar RSUExampleScenario.node[102].nic.mac1609_4 DroppedPacketsInMac 0
scalar RSUExampleScenario.node[102].nic.mac1609_4 TooLittleTime 0
scalar RSUExampleScenario.node[102].nic.mac1609_4 TimesIntoBackoff 34
scalar RSUExampleScenario.node[102].nic.mac1609_4 SlotsBackoff 56
scalar RSUExampleScenario.node[102].nic.mac1609_4 NumInternalContention 0
scalar RSUExampleScenario.node[102].nic.mac1609_4 totalBusyTime 0.164441
scalar RSUExampleScenario.node[102].nic.mac1609_4 retriesExceeded:count 0
attr source org_car2x_veins_modules_mac_sigRetriesExceeded
scalar RSUExampleScenario.node[102].nic.mac1609_4 sentAcks:count 0
attr source org_car2x_veins_modules_mac_sigSentAck
scalar RSUExampleScenario.node[102].nic.mac1609_4 sentPackets:count 17
attr source org_car2x_veins_modules_mac_sigSentPacket
scalar RSUExampleScenario.node[102].nic.mac1609_4 collisions:count 0
attr source org_car2x_veins_modules_mac_sigCollision
scalar RSUExampleScenario.node[102].nic.mac1609_4 channelBusy:timeavg 0.096730000000001
attr source org_car2x_veins_modules_mac_sigChannelBusy
scalar RSUExampleScenario.node[102].veinsmobility startTime 118.3
scalar RSUExampleScenario.node[102].veinsmobility totalTime 1.7
scalar RSUExampleScenario.node[102].veinsmobility stopTime 120
scalar RSUExampleScenario.node[102].veinsmobility minSpeed 2.480730973093
scalar RSUExampleScenario.node[102].veinsmobility maxSpeed 4.252975385008
scalar RSUExampleScenario.node[102].veinsmobility totalDistance 5.9965924444879
scalar RSUExampleScenario.node[102].veinsmobility totalCO2Emission 3.4997217982239

