version 2
run WithBeaconing-0-20251015-16:38:37-3789
attr configname WithBeaconing
attr datetime 20251015-16:38:37
attr experiment WithBeaconing
attr inifile omnetpp.ini
attr iterationvars ""
attr iterationvarsf ""
attr measurement ""
attr network RSUExampleScenario
attr processid 3789
attr repetition 0
attr replication #0
attr resultdir results
attr runnumber 0
attr seedset 210041226
param *.node[*].appl.sendBeacons true
param *.playgroundSizeX 1700m
param *.playgroundSizeY 1700m
param *.playgroundSizeZ 50m
param *.annotations.draw true
param *.manager.updateInterval 0.1s
param *.manager.host "\"localhost\""
param *.manager.port 9999
param *.manager.autoShutdown true
param *.manager.launchConfig "xmldoc(\"simulation_freeway.launchd.xml\")"
param *.connectionManager.sendDirect true
param *.connectionManager.maxInterfDist 2600m
param *.connectionManager.drawMaxIntfDist false
param *.**.nic.mac1609_4.useServiceChannel false
param *.**.nic.mac1609_4.txPower 20mW
param *.**.nic.mac1609_4.bitrate 6Mbps
param *.**.nic.phy80211p.minPowerLevel -110dBm
param *.**.nic.phy80211p.useNoiseFloor true
param *.**.nic.phy80211p.noiseFloor -98dBm
param *.**.nic.phy80211p.decider "xmldoc(\"config.xml\")"
param *.**.nic.phy80211p.analogueModels "xmldoc(\"config.xml\")"
param *.**.nic.phy80211p.usePropagationDelay true
param *.**.nic.phy80211p.antenna "xmldoc(\"antenna.xml\", \"/root/Antenna[@id='monopole']\")"
param *.node[*].nic.phy80211p.antennaOffsetY "0 m"
param *.node[*].nic.phy80211p.antennaOffsetZ "1.895 m"
param *.node[*].applType "\"TraCIDemo11p\""
param *.node[*].appl.headerLength "80 bit"
param *.node[*].appl.sendBeacons false
param *.node[*].appl.dataOnSch false
param *.node[*].appl.beaconInterval 0.1s
param **.node[*].appl.dataUserPriority 5
param **.node[*].appl.beaconUserPriority 7
param *.node[*].veinsmobility.x 0
param *.node[*].veinsmobility.y 0
param *.node[*].veinsmobility.z 0
param *.node[*].veinsmobility.setHostSpeed false

scalar RSUExampleScenario.node[0].appl generatedWSMs 0
scalar RSUExampleScenario.node[0].appl receivedWSMs 0
scalar RSUExampleScenario.node[0].appl generatedBSMs 897
scalar RSUExampleScenario.node[0].appl receivedBSMs 16055
scalar RSUExampleScenario.node[0].appl generatedWSAs 0
scalar RSUExampleScenario.node[0].appl receivedWSAs 0
scalar RSUExampleScenario.node[0].nic.phy80211p busyTime 0.022219130434793
scalar RSUExampleScenario.node[0].nic.mac1609_4 ReceivedUnicastPackets 0
scalar RSUExampleScenario.node[0].nic.mac1609_4 ReceivedBroadcasts 16055
scalar RSUExampleScenario.node[0].nic.mac1609_4 SentPackets 897
scalar RSUExampleScenario.node[0].nic.mac1609_4 SentAcknowledgements 0
scalar RSUExampleScenario.node[0].nic.mac1609_4 RetriesExceeded 0
scalar RSUExampleScenario.node[0].nic.mac1609_4 SNIRLostPackets 3109
scalar RSUExampleScenario.node[0].nic.mac1609_4 RXTXLostPackets 0
scalar RSUExampleScenario.node[0].nic.mac1609_4 TotalLostPackets 3109
scalar RSUExampleScenario.node[0].nic.mac1609_4 DroppedPacketsInMac 0
scalar RSUExampleScenario.node[0].nic.mac1609_4 TooLittleTime 0
scalar RSUExampleScenario.node[0].nic.mac1609_4 TimesIntoBackoff 897
scalar RSUExampleScenario.node[0].nic.mac1609_4 SlotsBackoff 1400
scalar RSUExampleScenario.node[0].nic.mac1609_4 NumInternalContention 0
scalar RSUExampleScenario.node[0].nic.mac1609_4 totalBusyTime 2.087241
scalar RSUExampleScenario.node[0].nic.mac1609_4 retriesExceeded:count 0
attr source org_car2x_veins_modules_mac_sigRetriesExceeded
scalar RSUExampleScenario.node[0].nic.mac1609_4 sentAcks:count 0
attr source org_car2x_veins_modules_mac_sigSentAck
scalar RSUExampleScenario.node[0].nic.mac1609_4 sentPackets:count 897
attr source org_car2x_veins_modules_mac_sigSentPacket
scalar RSUExampleScenario.node[0].nic.mac1609_4 collisions:count 0
attr source org_car2x_veins_modules_mac_sigCollision
scalar RSUExampleScenario.node[0].nic.mac1609_4 channelBusy:timeavg 0.023269130434792
attr source org_car2x_veins_modules_mac_sigChannelBusy
scalar RSUExampleScenario.node[0].veinsmobility startTime 0.1
scalar RSUExampleScenario.node[0].veinsmobility totalTime 89.6
scalar RSUExampleScenario.node[0].veinsmobility stopTime 89.8
scalar RSUExampleScenario.node[0].veinsmobility minSpeed 11.038709312666
scalar RSUExampleScenario.node[0].veinsmobility maxSpeed 11.162965368468
scalar RSUExampleScenario.node[0].veinsmobility totalDistance 994.65831676138
scalar RSUExampleScenario.node[0].veinsmobility totalCO2Emission 180.69656345733
scalar RSUExampleScenario.node[1].appl generatedWSMs 0
scalar RSUExampleScenario.node[1].appl receivedWSMs 0
scalar RSUExampleScenario.node[1].appl generatedBSMs 955
scalar RSUExampleScenario.node[1].appl receivedBSMs 17581
scalar RSUExampleScenario.node[1].appl generatedWSAs 0
scalar RSUExampleScenario.node[1].appl receivedWSAs 0
scalar RSUExampleScenario.node[1].nic.phy80211p busyTime 0.023595476439797
scalar RSUExampleScenario.node[1].nic.mac1609_4 ReceivedUnicastPackets 0
scalar RSUExampleScenario.node[1].nic.mac1609_4 ReceivedBroadcasts 17581
scalar RSUExampleScenario.node[1].nic.mac1609_4 SentPackets 955
scalar RSUExampleScenario.node[1].nic.mac1609_4 SentAcknowledgements 0
scalar RSUExampleScenario.node[1].nic.mac1609_4 RetriesExceeded 0
scalar RSUExampleScenario.node[1].nic.mac1609_4 SNIRLostPackets 4086
scalar RSUExampleScenario.node[1].nic.mac1609_4 RXTXLostPackets 0
scalar RSUExampleScenario.node[1].nic.mac1609_4 TotalLostPackets 4086
scalar RSUExampleScenario.node[1].nic.mac1609_4 DroppedPacketsInMac 0
scalar RSUExampleScenario.node[1].nic.mac1609_4 TooLittleTime 0
scalar RSUExampleScenario.node[1].nic.mac1609_4 TimesIntoBackoff 955
scalar RSUExampleScenario.node[1].nic.mac1609_4 SlotsBackoff 1398
scalar RSUExampleScenario.node[1].nic.mac1609_4 NumInternalContention 0
scalar RSUExampleScenario.node[1].nic.mac1609_4 totalBusyTime 2.353643
scalar RSUExampleScenario.node[1].nic.mac1609_4 retriesExceeded:count 0
attr source org_car2x_veins_modules_mac_sigRetriesExceeded
scalar RSUExampleScenario.node[1].nic.mac1609_4 sentAcks:count 0
attr source org_car2x_veins_modules_mac_sigSentAck
scalar RSUExampleScenario.node[1].nic.mac1609_4 sentPackets:count 955
attr source org_car2x_veins_modules_mac_sigSentPacket
scalar RSUExampleScenario.node[1].nic.mac1609_4 collisions:count 0
attr source org_car2x_veins_modules_mac_sigCollision
scalar RSUExampleScenario.node[1].nic.mac1609_4 channelBusy:timeavg 0.024645476439796
attr source org_car2x_veins_modules_mac_sigChannelBusy
scalar RSUExampleScenario.node[1].veinsmobility startTime 0.1
scalar RSUExampleScenario.node[1].veinsmobility totalTime 95.4
scalar RSUExampleScenario.node[1].veinsmobility stopTime 95.6
scalar RSUExampleScenario.node[1].veinsmobility minSpeed 10.358986354655
scalar RSUExampleScenario.node[1].veinsmobility maxSpeed 10.483538984805
scalar RSUExampleScenario.node[1].veinsmobility totalDistance 994.13775225239
scalar RSUExampleScenario.node[1].veinsmobility totalCO2Emission 184.57996083225
scalar RSUExampleScenario.node[2].appl generatedWSMs 0
scalar RSUExampleScenario.node[2].appl receivedWSMs 0
scalar RSUExampleScenario.node[2].appl generatedBSMs 972
scalar RSUExampleScenario.node[2].appl receivedBSMs 19497
scalar RSUExampleScenario.node[2].appl generatedWSAs 0
scalar RSUExampleScenario.node[2].appl receivedWSAs 0
scalar RSUExampleScenario.node[2].nic.phy80211p busyTime 0.025394403292185
scalar RSUExampleScenario.node[2].nic.mac1609_4 ReceivedUnicastPackets 0
scalar RSUExampleScenario.node[2].nic.mac1609_4 ReceivedBroadcasts 19497
scalar RSUExampleScenario.node[2].nic.mac1609_4 SentPackets 972
scalar RSUExampleScenario.node[2].nic.mac1609_4 SentAcknowledgements 0
scalar RSUExampleScenario.node[2].nic.mac1609_4 RetriesExceeded 0
scalar RSUExampleScenario.node[2].nic.mac1609_4 SNIRLostPackets 4237
scalar RSUExampleScenario.node[2].nic.mac1609_4 RXTXLostPackets 0
scalar RSUExampleScenario.node[2].nic.mac1609_4 TotalLostPackets 4237
scalar RSUExampleScenario.node[2].nic.mac1609_4 DroppedPacketsInMac 0
scalar RSUExampleScenario.node[2].nic.mac1609_4 TooLittleTime 0
scalar RSUExampleScenario.node[2].nic.mac1609_4 TimesIntoBackoff 972
scalar RSUExampleScenario.node[2].nic.mac1609_4 SlotsBackoff 1508
scalar RSUExampleScenario.node[2].nic.mac1609_4 NumInternalContention 0
scalar RSUExampleScenario.node[2].nic.mac1609_4 totalBusyTime 2.570396
scalar RSUExampleScenario.node[2].nic.mac1609_4 retriesExceeded:count 0
attr source org_car2x_veins_modules_mac_sigRetriesExceeded
scalar RSUExampleScenario.node[2].nic.mac1609_4 sentAcks:count 0
attr source org_car2x_veins_modules_mac_sigSentAck
scalar RSUExampleScenario.node[2].nic.mac1609_4 sentPackets:count 972
attr source org_car2x_veins_modules_mac_sigSentPacket
scalar RSUExampleScenario.node[2].nic.mac1609_4 collisions:count 0
attr source org_car2x_veins_modules_mac_sigCollision
scalar RSUExampleScenario.node[2].nic.mac1609_4 channelBusy:timeavg 0.026444403292184
attr source org_car2x_veins_modules_mac_sigChannelBusy
scalar RSUExampleScenario.node[2].veinsmobility startTime 3.1
scalar RSUExampleScenario.node[2].veinsmobility totalTime 97.1
scalar RSUExampleScenario.node[2].veinsmobility stopTime 100.3
scalar RSUExampleScenario.node[2].veinsmobility minSpeed 10.174613443041
scalar RSUExampleScenario.node[2].veinsmobility maxSpeed 10.299470320822
scalar RSUExampleScenario.node[2].veinsmobility totalDistance 993.78810527073
scalar RSUExampleScenario.node[2].veinsmobility totalCO2Emission 186.61692770984
scalar RSUExampleScenario.node[3].appl generatedWSMs 0
scalar RSUExampleScenario.node[3].appl receivedWSMs 0
scalar RSUExampleScenario.node[3].appl generatedBSMs 986
scalar RSUExampleScenario.node[3].appl receivedBSMs 21291
scalar RSUExampleScenario.node[3].appl generatedWSAs 0
scalar RSUExampleScenario.node[3].appl receivedWSAs 0
scalar RSUExampleScenario.node[3].nic.phy80211p busyTime 0.02708640973631
scalar RSUExampleScenario.node[3].nic.mac1609_4 ReceivedUnicastPackets 0
scalar RSUExampleScenario.node[3].nic.mac1609_4 ReceivedBroadcasts 21291
scalar RSUExampleScenario.node[3].nic.mac1609_4 SentPackets 986
scalar RSUExampleScenario.node[3].nic.mac1609_4 SentAcknowledgements 0
scalar RSUExampleScenario.node[3].nic.mac1609_4 RetriesExceeded 0
scalar RSUExampleScenario.node[3].nic.mac1609_4 SNIRLostPackets 4389
scalar RSUExampleScenario.node[3].nic.mac1609_4 RXTXLostPackets 0
scalar RSUExampleScenario.node[3].nic.mac1609_4 TotalLostPackets 4389
scalar RSUExampleScenario.node[3].nic.mac1609_4 DroppedPacketsInMac 0
scalar RSUExampleScenario.node[3].nic.mac1609_4 TooLittleTime 0
scalar RSUExampleScenario.node[3].nic.mac1609_4 TimesIntoBackoff 986
scalar RSUExampleScenario.node[3].nic.mac1609_4 SlotsBackoff 1457
scalar RSUExampleScenario.node[3].nic.mac1609_4 NumInternalContention 0
scalar RSUExampleScenario.node[3].nic.mac1609_4 totalBusyTime 2.77425
scalar RSUExampleScenario.node[3].nic.mac1609_4 retriesExceeded:count 0
attr source org_car2x_veins_modules_mac_sigRetriesExceeded
scalar RSUExampleScenario.node[3].nic.mac1609_4 sentAcks:count 0
attr source org_car2x_veins_modules_mac_sigSentAck
scalar RSUExampleScenario.node[3].nic.mac1609_4 sentPackets:count 986
attr source org_car2x_veins_modules_mac_sigSentPacket
scalar RSUExampleScenario.node[3].nic.mac1609_4 collisions:count 0
attr source org_car2x_veins_modules_mac_sigCollision
scalar RSUExampleScenario.node[3].nic.mac1609_4 channelBusy:timeavg 0.028136409736309
attr source org_car2x_veins_modules_mac_sigChannelBusy
scalar RSUExampleScenario.node[3].veinsmobility startTime 6.1
scalar RSUExampleScenario.node[3].veinsmobility totalTime 98.5
scalar RSUExampleScenario.node[3].veinsmobility stopTime 104.7
scalar RSUExampleScenario.node[3].veinsmobility minSpeed 10.028181698627
scalar RSUExampleScenario.node[3].veinsmobility maxSpeed 10.152949146333
scalar RSUExampleScenario.node[3].veinsmobility totalDistance 993.9091865571
scalar RSUExampleScenario.node[3].veinsmobility totalCO2Emission 189.2286734671
scalar RSUExampleScenario.node[5].appl generatedWSMs 0
scalar RSUExampleScenario.node[5].appl receivedWSMs 0
scalar RSUExampleScenario.node[5].appl generatedBSMs 972
scalar RSUExampleScenario.node[5].appl receivedBSMs 21973
scalar RSUExampleScenario.node[5].appl generatedWSAs 0
scalar RSUExampleScenario.node[5].appl receivedWSAs 0
scalar RSUExampleScenario.node[5].nic.phy80211p busyTime 0.028154897119343
scalar RSUExampleScenario.node[5].nic.mac1609_4 ReceivedUnicastPackets 0
scalar RSUExampleScenario.node[5].nic.mac1609_4 ReceivedBroadcasts 21973
scalar RSUExampleScenario.node[5].nic.mac1609_4 SentPackets 972
scalar RSUExampleScenario.node[5].nic.mac1609_4 SentAcknowledgements 0
scalar RSUExampleScenario.node[5].nic.mac1609_4 RetriesExceeded 0
scalar RSUExampleScenario.node[5].nic.mac1609_4 SNIRLostPackets 4341
scalar RSUExampleScenario.node[5].nic.mac1609_4 RXTXLostPackets 0
scalar RSUExampleScenario.node[5].nic.mac1609_4 TotalLostPackets 4341
scalar RSUExampleScenario.node[5].nic.mac1609_4 DroppedPacketsInMac 0
scalar RSUExampleScenario.node[5].nic.mac1609_4 TooLittleTime 0
scalar RSUExampleScenario.node[5].nic.mac1609_4 TimesIntoBackoff 972
scalar RSUExampleScenario.node[5].nic.mac1609_4 SlotsBackoff 1457
scalar RSUExampleScenario.node[5].nic.mac1609_4 NumInternalContention 0
scalar RSUExampleScenario.node[5].nic.mac1609_4 totalBusyTime 2.838716
scalar RSUExampleScenario.node[5].nic.mac1609_4 retriesExceeded:count 0
attr source org_car2x_veins_modules_mac_sigRetriesExceeded
scalar RSUExampleScenario.node[5].nic.mac1609_4 sentAcks:count 0
attr source org_car2x_veins_modules_mac_sigSentAck
scalar RSUExampleScenario.node[5].nic.mac1609_4 sentPackets:count 972
attr source org_car2x_veins_modules_mac_sigSentPacket
scalar RSUExampleScenario.node[5].nic.mac1609_4 collisions:count 0
attr source org_car2x_veins_modules_mac_sigCollision
scalar RSUExampleScenario.node[5].nic.mac1609_4 channelBusy:timeavg 0.029204897119342
attr source org_car2x_veins_modules_mac_sigChannelBusy
scalar RSUExampleScenario.node[5].veinsmobility startTime 9.1
scalar RSUExampleScenario.node[5].veinsmobility totalTime 97.1
scalar RSUExampleScenario.node[5].veinsmobility stopTime 106.3
scalar RSUExampleScenario.node[5].veinsmobility minSpeed 9.982979644862
scalar RSUExampleScenario.node[5].veinsmobility maxSpeed 11.554880005397
scalar RSUExampleScenario.node[5].veinsmobility totalDistance 993.91636758558
scalar RSUExampleScenario.node[5].veinsmobility totalCO2Emission 201.05634230126
scalar RSUExampleScenario.node[6].appl generatedWSMs 0
scalar RSUExampleScenario.node[6].appl receivedWSMs 0
scalar RSUExampleScenario.node[6].appl generatedBSMs 1060
scalar RSUExampleScenario.node[6].appl receivedBSMs 27145
scalar RSUExampleScenario.node[6].appl generatedWSAs 0
scalar RSUExampleScenario.node[6].appl receivedWSAs 0
scalar RSUExampleScenario.node[6].nic.phy80211p busyTime 0.031270641509429
scalar RSUExampleScenario.node[6].nic.mac1609_4 ReceivedUnicastPackets 0
scalar RSUExampleScenario.node[6].nic.mac1609_4 ReceivedBroadcasts 27145
scalar RSUExampleScenario.node[6].nic.mac1609_4 SentPackets 1060
scalar RSUExampleScenario.node[6].nic.mac1609_4 SentAcknowledgements 0
scalar RSUExampleScenario.node[6].nic.mac1609_4 RetriesExceeded 0
scalar RSUExampleScenario.node[6].nic.mac1609_4 SNIRLostPackets 4727
scalar RSUExampleScenario.node[6].nic.mac1609_4 RXTXLostPackets 0
scalar RSUExampleScenario.node[6].nic.mac1609_4 TotalLostPackets 4727
scalar RSUExampleScenario.node[6].nic.mac1609_4 DroppedPacketsInMac 0
scalar RSUExampleScenario.node[6].nic.mac1609_4 TooLittleTime 0
scalar RSUExampleScenario.node[6].nic.mac1609_4 TimesIntoBackoff 1060
scalar RSUExampleScenario.node[6].nic.mac1609_4 SlotsBackoff 1598
scalar RSUExampleScenario.node[6].nic.mac1609_4 NumInternalContention 0
scalar RSUExampleScenario.node[6].nic.mac1609_4 totalBusyTime 3.425988
scalar RSUExampleScenario.node[6].nic.mac1609_4 retriesExceeded:count 0
attr source org_car2x_veins_modules_mac_sigRetriesExceeded
scalar RSUExampleScenario.node[6].nic.mac1609_4 sentAcks:count 0
attr source org_car2x_veins_modules_mac_sigSentAck
scalar RSUExampleScenario.node[6].nic.mac1609_4 sentPackets:count 1060
attr source org_car2x_veins_modules_mac_sigSentPacket
scalar RSUExampleScenario.node[6].nic.mac1609_4 collisions:count 0
attr source org_car2x_veins_modules_mac_sigCollision
scalar RSUExampleScenario.node[6].nic.mac1609_4 channelBusy:timeavg 0.032320641509428
attr source org_car2x_veins_modules_mac_sigChannelBusy
scalar RSUExampleScenario.node[6].veinsmobility startTime 12.1
scalar RSUExampleScenario.node[6].veinsmobility totalTime 105.9
scalar RSUExampleScenario.node[6].veinsmobility stopTime 118.1
scalar RSUExampleScenario.node[6].veinsmobility minSpeed 9.3291882386898
scalar RSUExampleScenario.node[6].veinsmobility maxSpeed 9.453822463815
scalar RSUExampleScenario.node[6].veinsmobility totalDistance 994.70923543909
scalar RSUExampleScenario.node[6].veinsmobility totalCO2Emission 192.60028894846
scalar RSUExampleScenario.node[8].appl generatedWSMs 0
scalar RSUExampleScenario.node[8].appl receivedWSMs 0
scalar RSUExampleScenario.node[8].appl generatedBSMs 1046
scalar RSUExampleScenario.node[8].appl receivedBSMs 27789
scalar RSUExampleScenario.node[8].appl generatedWSAs 0
scalar RSUExampleScenario.node[8].appl receivedWSAs 0
scalar RSUExampleScenario.node[8].nic.phy80211p busyTime 0.032301644359459
scalar RSUExampleScenario.node[8].nic.mac1609_4 ReceivedUnicastPackets 0
scalar RSUExampleScenario.node[8].nic.mac1609_4 ReceivedBroadcasts 27789
scalar RSUExampleScenario.node[8].nic.mac1609_4 SentPackets 1046
scalar RSUExampleScenario.node[8].nic.mac1609_4 SentAcknowledgements 0
scalar RSUExampleScenario.node[8].nic.mac1609_4 RetriesExceeded 0
scalar RSUExampleScenario.node[8].nic.mac1609_4 SNIRLostPackets 4699
scalar RSUExampleScenario.node[8].nic.mac1609_4 RXTXLostPackets 0
scalar RSUExampleScenario.node[8].nic.mac1609_4 TotalLostPackets 4699
scalar RSUExampleScenario.node[8].nic.mac1609_4 DroppedPacketsInMac 0
scalar RSUExampleScenario.node[8].nic.mac1609_4 TooLittleTime 0
scalar RSUExampleScenario.node[8].nic.mac1609_4 TimesIntoBackoff 1046
scalar RSUExampleScenario.node[8].nic.mac1609_4 SlotsBackoff 1547
scalar RSUExampleScenario.node[8].nic.mac1609_4 NumInternalContention 0
scalar RSUExampleScenario.node[8].nic.mac1609_4 totalBusyTime 3.488582
scalar RSUExampleScenario.node[8].nic.mac1609_4 retriesExceeded:count 0
attr source org_car2x_veins_modules_mac_sigRetriesExceeded
scalar RSUExampleScenario.node[8].nic.mac1609_4 sentAcks:count 0
attr source org_car2x_veins_modules_mac_sigSentAck
scalar RSUExampleScenario.node[8].nic.mac1609_4 sentPackets:count 1046
attr source org_car2x_veins_modules_mac_sigSentPacket
scalar RSUExampleScenario.node[8].nic.mac1609_4 collisions:count 0
attr source org_car2x_veins_modules_mac_sigCollision
scalar RSUExampleScenario.node[8].nic.mac1609_4 channelBusy:timeavg 0.033351644359458
attr source org_car2x_veins_modules_mac_sigChannelBusy
scalar RSUExampleScenario.node[8].veinsmobility startTime 15.1
scalar RSUExampleScenario.node[8].veinsmobility totalTime 104.5
scalar RSUExampleScenario.node[8].veinsmobility stopTime 119.7
scalar RSUExampleScenario.node[8].veinsmobility minSpeed 9.2823135157554
scalar RSUExampleScenario.node[8].veinsmobility maxSpeed 10.541380351915
scalar RSUExampleScenario.node[8].veinsmobility totalDistance 994.04090335544
scalar RSUExampleScenario.node[8].veinsmobility totalCO2Emission 205.94554009555
scalar RSUExampleScenario.manager roiArea 0
scalar RSUExampleScenario.node[4].appl generatedWSMs 0
scalar RSUExampleScenario.node[4].appl receivedWSMs 0
scalar RSUExampleScenario.node[4].appl generatedBSMs 1129
scalar RSUExampleScenario.node[4].appl receivedBSMs 27313
scalar RSUExampleScenario.node[4].appl generatedWSAs 0
scalar RSUExampleScenario.node[4].appl receivedWSAs 0
scalar RSUExampleScenario.node[4].nic.phy80211p busyTime 0.030452010628869
scalar RSUExampleScenario.node[4].nic.mac1609_4 ReceivedUnicastPackets 0
scalar RSUExampleScenario.node[4].nic.mac1609_4 ReceivedBroadcasts 27313
scalar RSUExampleScenario.node[4].nic.mac1609_4 SentPackets 1129
scalar RSUExampleScenario.node[4].nic.mac1609_4 SentAcknowledgements 0
scalar RSUExampleScenario.node[4].nic.mac1609_4 RetriesExceeded 0
scalar RSUExampleScenario.node[4].nic.mac1609_4 SNIRLostPackets 5745
scalar RSUExampleScenario.node[4].nic.mac1609_4 RXTXLostPackets 0
scalar RSUExampleScenario.node[4].nic.mac1609_4 TotalLostPackets 5745
scalar RSUExampleScenario.node[4].nic.mac1609_4 DroppedPacketsInMac 0
scalar RSUExampleScenario.node[4].nic.mac1609_4 TooLittleTime 0
scalar RSUExampleScenario.node[4].nic.mac1609_4 TimesIntoBackoff 1129
scalar RSUExampleScenario.node[4].nic.mac1609_4 SlotsBackoff 1710
scalar RSUExampleScenario.node[4].nic.mac1609_4 NumInternalContention 0
scalar RSUExampleScenario.node[4].nic.mac1609_4 totalBusyTime 3.556577
scalar RSUExampleScenario.node[4].nic.mac1609_4 retriesExceeded:count 0
attr source org_car2x_veins_modules_mac_sigRetriesExceeded
scalar RSUExampleScenario.node[4].nic.mac1609_4 sentAcks:count 0
attr source org_car2x_veins_modules_mac_sigSentAck
scalar RSUExampleScenario.node[4].nic.mac1609_4 sentPackets:count 1129
attr source org_car2x_veins_modules_mac_sigSentPacket
scalar RSUExampleScenario.node[4].nic.mac1609_4 collisions:count 0
attr source org_car2x_veins_modules_mac_sigCollision
scalar RSUExampleScenario.node[4].nic.mac1609_4 channelBusy:timeavg 0.031502010628868
attr source org_car2x_veins_modules_mac_sigChannelBusy
scalar RSUExampleScenario.node[4].veinsmobility startTime 7.1
scalar RSUExampleScenario.node[4].veinsmobility totalTime 112.9
scalar RSUExampleScenario.node[4].veinsmobility stopTime 120
scalar RSUExampleScenario.node[4].veinsmobility minSpeed 8.7062704828791
scalar RSUExampleScenario.node[4].veinsmobility maxSpeed 8.8311696493115
scalar RSUExampleScenario.node[4].veinsmobility totalDistance 990.05720411751
scalar RSUExampleScenario.node[4].veinsmobility totalCO2Emission 202.34347906914
scalar RSUExampleScenario.node[7].appl generatedWSMs 0
scalar RSUExampleScenario.node[7].appl receivedWSMs 0
scalar RSUExampleScenario.node[7].appl generatedBSMs 1059
scalar RSUExampleScenario.node[7].appl receivedBSMs 28623
scalar RSUExampleScenario.node[7].appl generatedWSAs 0
scalar RSUExampleScenario.node[7].appl receivedWSAs 0
scalar RSUExampleScenario.node[7].nic.phy80211p busyTime 0.032121170915952
scalar RSUExampleScenario.node[7].nic.mac1609_4 ReceivedUnicastPackets 0
scalar RSUExampleScenario.node[7].nic.mac1609_4 ReceivedBroadcasts 28623
scalar RSUExampleScenario.node[7].nic.mac1609_4 SentPackets 1059
scalar RSUExampleScenario.node[7].nic.mac1609_4 SentAcknowledgements 0
scalar RSUExampleScenario.node[7].nic.mac1609_4 RetriesExceeded 0
scalar RSUExampleScenario.node[7].nic.mac1609_4 SNIRLostPackets 4085
scalar RSUExampleScenario.node[7].nic.mac1609_4 RXTXLostPackets 0
scalar RSUExampleScenario.node[7].nic.mac1609_4 TotalLostPackets 4085
scalar RSUExampleScenario.node[7].nic.mac1609_4 DroppedPacketsInMac 0
scalar RSUExampleScenario.node[7].nic.mac1609_4 TooLittleTime 0
scalar RSUExampleScenario.node[7].nic.mac1609_4 TimesIntoBackoff 1059
scalar RSUExampleScenario.node[7].nic.mac1609_4 SlotsBackoff 1587
scalar RSUExampleScenario.node[7].nic.mac1609_4 NumInternalContention 0
scalar RSUExampleScenario.node[7].nic.mac1609_4 totalBusyTime 3.512827
scalar RSUExampleScenario.node[7].nic.mac1609_4 retriesExceeded:count 0
attr source org_car2x_veins_modules_mac_sigRetriesExceeded
scalar RSUExampleScenario.node[7].nic.mac1609_4 sentAcks:count 0
attr source org_car2x_veins_modules_mac_sigSentAck
scalar RSUExampleScenario.node[7].nic.mac1609_4 sentPackets:count 1059
attr source org_car2x_veins_modules_mac_sigSentPacket
scalar RSUExampleScenario.node[7].nic.mac1609_4 collisions:count 0
attr source org_car2x_veins_modules_mac_sigCollision
scalar RSUExampleScenario.node[7].nic.mac1609_4 channelBusy:timeavg 0.033171170915951
attr source org_car2x_veins_modules_mac_sigChannelBusy
scalar RSUExampleScenario.node[7].veinsmobility startTime 14.1
scalar RSUExampleScenario.node[7].veinsmobility totalTime 105.9
scalar RSUExampleScenario.node[7].veinsmobility stopTime 120
scalar RSUExampleScenario.node[7].veinsmobility minSpeed 7.5194585509906
scalar RSUExampleScenario.node[7].veinsmobility maxSpeed 7.6442152669787
scalar RSUExampleScenario.node[7].veinsmobility totalDistance 803.11436753294
scalar RSUExampleScenario.node[7].veinsmobility totalCO2Emission 177.476774556
scalar RSUExampleScenario.node[9].appl generatedWSMs 0
scalar RSUExampleScenario.node[9].appl receivedWSMs 0
scalar RSUExampleScenario.node[9].appl generatedBSMs 1019
scalar RSUExampleScenario.node[9].appl receivedBSMs 27935
scalar RSUExampleScenario.node[9].appl generatedWSAs 0
scalar RSUExampleScenario.node[9].appl receivedWSAs 0
scalar RSUExampleScenario.node[9].nic.phy80211p busyTime 0.033065672227668
scalar RSUExampleScenario.node[9].nic.mac1609_4 ReceivedUnicastPackets 0
scalar RSUExampleScenario.node[9].nic.mac1609_4 ReceivedBroadcasts 27935
scalar RSUExampleScenario.node[9].nic.mac1609_4 SentPackets 1019
scalar RSUExampleScenario.node[9].nic.mac1609_4 SentAcknowledgements 0
scalar RSUExampleScenario.node[9].nic.mac1609_4 RetriesExceeded 0
scalar RSUExampleScenario.node[9].nic.mac1609_4 SNIRLostPackets 4463
scalar RSUExampleScenario.node[9].nic.mac1609_4 RXTXLostPackets 0
scalar RSUExampleScenario.node[9].nic.mac1609_4 TotalLostPackets 4463
scalar RSUExampleScenario.node[9].nic.mac1609_4 DroppedPacketsInMac 0
scalar RSUExampleScenario.node[9].nic.mac1609_4 TooLittleTime 0
scalar RSUExampleScenario.node[9].nic.mac1609_4 TimesIntoBackoff 1019
scalar RSUExampleScenario.node[9].nic.mac1609_4 SlotsBackoff 1483
scalar RSUExampleScenario.node[9].nic.mac1609_4 NumInternalContention 0
scalar RSUExampleScenario.node[9].nic.mac1609_4 totalBusyTime 3.476387
scalar RSUExampleScenario.node[9].nic.mac1609_4 retriesExceeded:count 0
attr source org_car2x_veins_modules_mac_sigRetriesExceeded
scalar RSUExampleScenario.node[9].nic.mac1609_4 sentAcks:count 0
attr source org_car2x_veins_modules_mac_sigSentAck
scalar RSUExampleScenario.node[9].nic.mac1609_4 sentPackets:count 1019
attr source org_car2x_veins_modules_mac_sigSentPacket
scalar RSUExampleScenario.node[9].nic.mac1609_4 collisions:count 0
attr source org_car2x_veins_modules_mac_sigCollision
scalar RSUExampleScenario.node[9].nic.mac1609_4 channelBusy:timeavg 0.034115672227667
attr source org_car2x_veins_modules_mac_sigChannelBusy
scalar RSUExampleScenario.node[9].veinsmobility startTime 18.1
scalar RSUExampleScenario.node[9].veinsmobility totalTime 101.9
scalar RSUExampleScenario.node[9].veinsmobility stopTime 120
scalar RSUExampleScenario.node[9].veinsmobility minSpeed 9.2545344540799
scalar RSUExampleScenario.node[9].veinsmobility maxSpeed 12.626083281574
scalar RSUExampleScenario.node[9].veinsmobility totalDistance 980.74658713567
scalar RSUExampleScenario.node[9].veinsmobility totalCO2Emission 205.284475736
scalar RSUExampleScenario.node[10].appl generatedWSMs 0
scalar RSUExampleScenario.node[10].appl receivedWSMs 0
scalar RSUExampleScenario.node[10].appl generatedBSMs 989
scalar RSUExampleScenario.node[10].appl receivedBSMs 28417
scalar RSUExampleScenario.node[10].appl generatedWSAs 0
scalar RSUExampleScenario.node[10].appl receivedWSAs 0
scalar RSUExampleScenario.node[10].nic.phy80211p busyTime 0.033784752275019
scalar RSUExampleScenario.node[10].nic.mac1609_4 ReceivedUnicastPackets 0
scalar RSUExampleScenario.node[10].nic.mac1609_4 ReceivedBroadcasts 28417
scalar RSUExampleScenario.node[10].nic.mac1609_4 SentPackets 989
scalar RSUExampleScenario.node[10].nic.mac1609_4 SentAcknowledgements 0
scalar RSUExampleScenario.node[10].nic.mac1609_4 RetriesExceeded 0
scalar RSUExampleScenario.node[10].nic.mac1609_4 SNIRLostPackets 3711
scalar RSUExampleScenario.node[10].nic.mac1609_4 RXTXLostPackets 0
scalar RSUExampleScenario.node[10].nic.mac1609_4 TotalLostPackets 3711
scalar RSUExampleScenario.node[10].nic.mac1609_4 DroppedPacketsInMac 0
scalar RSUExampleScenario.node[10].nic.mac1609_4 TooLittleTime 0
scalar RSUExampleScenario.node[10].nic.mac1609_4 TimesIntoBackoff 989
scalar RSUExampleScenario.node[10].nic.mac1609_4 SlotsBackoff 1467
scalar RSUExampleScenario.node[10].nic.mac1609_4 NumInternalContention 0
scalar RSUExampleScenario.node[10].nic.mac1609_4 totalBusyTime 3.445157
scalar RSUExampleScenario.node[10].nic.mac1609_4 retriesExceeded:count 0
attr source org_car2x_veins_modules_mac_sigRetriesExceeded
scalar RSUExampleScenario.node[10].nic.mac1609_4 sentAcks:count 0
attr source org_car2x_veins_modules_mac_sigSentAck
scalar RSUExampleScenario.node[10].nic.mac1609_4 sentPackets:count 989
attr source org_car2x_veins_modules_mac_sigSentPacket
scalar RSUExampleScenario.node[10].nic.mac1609_4 collisions:count 0
attr source org_car2x_veins_modules_mac_sigCollision
scalar RSUExampleScenario.node[10].nic.mac1609_4 channelBusy:timeavg 0.034834752275019
attr source org_car2x_veins_modules_mac_sigChannelBusy
scalar RSUExampleScenario.node[10].veinsmobility startTime 21.1
scalar RSUExampleScenario.node[10].veinsmobility totalTime 98.9
scalar RSUExampleScenario.node[10].veinsmobility stopTime 120
scalar RSUExampleScenario.node[10].veinsmobility minSpeed 7.4721008587695
scalar RSUExampleScenario.node[10].veinsmobility maxSpeed 11.252979860771
scalar RSUExampleScenario.node[10].veinsmobility totalDistance 787.83065471553
scalar RSUExampleScenario.node[10].veinsmobility totalCO2Emission 173.31556274471
scalar RSUExampleScenario.node[11].appl generatedWSMs 0
scalar RSUExampleScenario.node[11].appl receivedWSMs 0
scalar RSUExampleScenario.node[11].appl generatedBSMs 989
scalar RSUExampleScenario.node[11].appl receivedBSMs 28327
scalar RSUExampleScenario.node[11].appl generatedWSAs 0
scalar RSUExampleScenario.node[11].appl receivedWSAs 0
scalar RSUExampleScenario.node[11].nic.phy80211p busyTime 0.033784752275019
scalar RSUExampleScenario.node[11].nic.mac1609_4 ReceivedUnicastPackets 0
scalar RSUExampleScenario.node[11].nic.mac1609_4 ReceivedBroadcasts 28327
scalar RSUExampleScenario.node[11].nic.mac1609_4 SentPackets 989
scalar RSUExampleScenario.node[11].nic.mac1609_4 SentAcknowledgements 0
scalar RSUExampleScenario.node[11].nic.mac1609_4 RetriesExceeded 0
scalar RSUExampleScenario.node[11].nic.mac1609_4 SNIRLostPackets 3801
scalar RSUExampleScenario.node[11].nic.mac1609_4 RXTXLostPackets 0
scalar RSUExampleScenario.node[11].nic.mac1609_4 TotalLostPackets 3801
scalar RSUExampleScenario.node[11].nic.mac1609_4 DroppedPacketsInMac 0
scalar RSUExampleScenario.node[11].nic.mac1609_4 TooLittleTime 0
scalar RSUExampleScenario.node[11].nic.mac1609_4 TimesIntoBackoff 1078
scalar RSUExampleScenario.node[11].nic.mac1609_4 SlotsBackoff 1649
scalar RSUExampleScenario.node[11].nic.mac1609_4 NumInternalContention 0
scalar RSUExampleScenario.node[11].nic.mac1609_4 totalBusyTime 3.445157
scalar RSUExampleScenario.node[11].nic.mac1609_4 retriesExceeded:count 0
attr source org_car2x_veins_modules_mac_sigRetriesExceeded
scalar RSUExampleScenario.node[11].nic.mac1609_4 sentAcks:count 0
attr source org_car2x_veins_modules_mac_sigSentAck
scalar RSUExampleScenario.node[11].nic.mac1609_4 sentPackets:count 989
attr source org_car2x_veins_modules_mac_sigSentPacket
scalar RSUExampleScenario.node[11].nic.mac1609_4 collisions:count 0
attr source org_car2x_veins_modules_mac_sigCollision
scalar RSUExampleScenario.node[11].nic.mac1609_4 channelBusy:timeavg 0.034834752275019
attr source org_car2x_veins_modules_mac_sigChannelBusy
scalar RSUExampleScenario.node[11].veinsmobility startTime 21.1
scalar RSUExampleScenario.node[11].veinsmobility totalTime 98.9
scalar RSUExampleScenario.node[11].veinsmobility stopTime 120
scalar RSUExampleScenario.node[11].veinsmobility minSpeed 9.3263782603657
scalar RSUExampleScenario.node[11].veinsmobility maxSpeed 9.4512241135284
scalar RSUExampleScenario.node[11].veinsmobility totalDistance 928.43021978915
scalar RSUExampleScenario.node[11].veinsmobility totalCO2Emission 181.60990431203
scalar RSUExampleScenario.node[12].appl generatedWSMs 0
scalar RSUExampleScenario.node[12].appl receivedWSMs 0
scalar RSUExampleScenario.node[12].appl generatedBSMs 959
scalar RSUExampleScenario.node[12].appl receivedBSMs 28617
scalar RSUExampleScenario.node[12].appl generatedWSAs 0
scalar RSUExampleScenario.node[12].appl receivedWSAs 0
scalar RSUExampleScenario.node[12].nic.phy80211p busyTime 0.034483753910318
scalar RSUExampleScenario.node[12].nic.mac1609_4 ReceivedUnicastPackets 0
scalar RSUExampleScenario.node[12].nic.mac1609_4 ReceivedBroadcasts 28617
scalar RSUExampleScenario.node[12].nic.mac1609_4 SentPackets 959
scalar RSUExampleScenario.node[12].nic.mac1609_4 SentAcknowledgements 0
scalar RSUExampleScenario.node[12].nic.mac1609_4 RetriesExceeded 0
scalar RSUExampleScenario.node[12].nic.mac1609_4 SNIRLostPackets 3181
scalar RSUExampleScenario.node[12].nic.mac1609_4 RXTXLostPackets 0
scalar RSUExampleScenario.node[12].nic.mac1609_4 TotalLostPackets 3181
scalar RSUExampleScenario.node[12].nic.mac1609_4 DroppedPacketsInMac 0
scalar RSUExampleScenario.node[12].nic.mac1609_4 TooLittleTime 0
scalar RSUExampleScenario.node[12].nic.mac1609_4 TimesIntoBackoff 959
scalar RSUExampleScenario.node[12].nic.mac1609_4 SlotsBackoff 1508
scalar RSUExampleScenario.node[12].nic.mac1609_4 NumInternalContention 0
scalar RSUExampleScenario.node[12].nic.mac1609_4 totalBusyTime 3.407687
scalar RSUExampleScenario.node[12].nic.mac1609_4 retriesExceeded:count 0
attr source org_car2x_veins_modules_mac_sigRetriesExceeded
scalar RSUExampleScenario.node[12].nic.mac1609_4 sentAcks:count 0
attr source org_car2x_veins_modules_mac_sigSentAck
scalar RSUExampleScenario.node[12].nic.mac1609_4 sentPackets:count 959
attr source org_car2x_veins_modules_mac_sigSentPacket
scalar RSUExampleScenario.node[12].nic.mac1609_4 collisions:count 0
attr source org_car2x_veins_modules_mac_sigCollision
scalar RSUExampleScenario.node[12].nic.mac1609_4 channelBusy:timeavg 0.035533753910317
attr source org_car2x_veins_modules_mac_sigChannelBusy
scalar RSUExampleScenario.node[12].veinsmobility startTime 24.1
scalar RSUExampleScenario.node[12].veinsmobility totalTime 95.9
scalar RSUExampleScenario.node[12].veinsmobility stopTime 120
scalar RSUExampleScenario.node[12].veinsmobility minSpeed 9.1939580775639
scalar RSUExampleScenario.node[12].veinsmobility maxSpeed 9.3188861291115
scalar RSUExampleScenario.node[12].veinsmobility totalDistance 887.94423865902
scalar RSUExampleScenario.node[12].veinsmobility totalCO2Emission 175.18424831913
scalar RSUExampleScenario.node[13].appl generatedWSMs 0
scalar RSUExampleScenario.node[13].appl receivedWSMs 0
scalar RSUExampleScenario.node[13].appl generatedBSMs 929
scalar RSUExampleScenario.node[13].appl receivedBSMs 28577
scalar RSUExampleScenario.node[13].appl generatedWSAs 0
scalar RSUExampleScenario.node[13].appl receivedWSAs 0
scalar RSUExampleScenario.node[13].nic.phy80211p busyTime 0.035194316469317
scalar RSUExampleScenario.node[13].nic.mac1609_4 ReceivedUnicastPackets 0
scalar RSUExampleScenario.node[13].nic.mac1609_4 ReceivedBroadcasts 28577
scalar RSUExampleScenario.node[13].nic.mac1609_4 SentPackets 929
scalar RSUExampleScenario.node[13].nic.mac1609_4 SentAcknowledgements 0
scalar RSUExampleScenario.node[13].nic.mac1609_4 RetriesExceeded 0
scalar RSUExampleScenario.node[13].nic.mac1609_4 SNIRLostPackets 2861
scalar RSUExampleScenario.node[13].nic.mac1609_4 RXTXLostPackets 0
scalar RSUExampleScenario.node[13].nic.mac1609_4 TotalLostPackets 2861
scalar RSUExampleScenario.node[13].nic.mac1609_4 DroppedPacketsInMac 0
scalar RSUExampleScenario.node[13].nic.mac1609_4 TooLittleTime 0
scalar RSUExampleScenario.node[13].nic.mac1609_4 TimesIntoBackoff 929
scalar RSUExampleScenario.node[13].nic.mac1609_4 SlotsBackoff 1377
scalar RSUExampleScenario.node[13].nic.mac1609_4 NumInternalContention 0
scalar RSUExampleScenario.node[13].nic.mac1609_4 totalBusyTime 3.367097
scalar RSUExampleScenario.node[13].nic.mac1609_4 retriesExceeded:count 0
attr source org_car2x_veins_modules_mac_sigRetriesExceeded
scalar RSUExampleScenario.node[13].nic.mac1609_4 sentAcks:count 0
attr source org_car2x_veins_modules_mac_sigSentAck
scalar RSUExampleScenario.node[13].nic.mac1609_4 sentPackets:count 929
attr source org_car2x_veins_modules_mac_sigSentPacket
scalar RSUExampleScenario.node[13].nic.mac1609_4 collisions:count 0
attr source org_car2x_veins_modules_mac_sigCollision
scalar RSUExampleScenario.node[13].nic.mac1609_4 channelBusy:timeavg 0.036244316469316
attr source org_car2x_veins_modules_mac_sigChannelBusy
scalar RSUExampleScenario.node[13].veinsmobility startTime 27.1
scalar RSUExampleScenario.node[13].veinsmobility totalTime 92.9
scalar RSUExampleScenario.node[13].veinsmobility stopTime 120
scalar RSUExampleScenario.node[13].veinsmobility minSpeed 9.1478796392099
scalar RSUExampleScenario.node[13].veinsmobility maxSpeed 9.863903201394
scalar RSUExampleScenario.node[13].veinsmobility totalDistance 870.91722231885
scalar RSUExampleScenario.node[13].veinsmobility totalCO2Emission 177.62836351442
scalar RSUExampleScenario.node[14].appl generatedWSMs 0
scalar RSUExampleScenario.node[14].appl receivedWSMs 0
scalar RSUExampleScenario.node[14].appl generatedBSMs 919
scalar RSUExampleScenario.node[14].appl receivedBSMs 27901
scalar RSUExampleScenario.node[14].appl generatedWSAs 0
scalar RSUExampleScenario.node[14].appl receivedWSAs 0
scalar RSUExampleScenario.node[14].nic.phy80211p busyTime 0.035430163220887
scalar RSUExampleScenario.node[14].nic.mac1609_4 ReceivedUnicastPackets 0
scalar RSUExampleScenario.node[14].nic.mac1609_4 ReceivedBroadcasts 27901
scalar RSUExampleScenario.node[14].nic.mac1609_4 SentPackets 919
scalar RSUExampleScenario.node[14].nic.mac1609_4 SentAcknowledgements 0
scalar RSUExampleScenario.node[14].nic.mac1609_4 RetriesExceeded 0
scalar RSUExampleScenario.node[14].nic.mac1609_4 SNIRLostPackets 3407
scalar RSUExampleScenario.node[14].nic.mac1609_4 RXTXLostPackets 0
scalar RSUExampleScenario.node[14].nic.mac1609_4 TotalLostPackets 3407
scalar RSUExampleScenario.node[14].nic.mac1609_4 DroppedPacketsInMac 0
scalar RSUExampleScenario.node[14].nic.mac1609_4 TooLittleTime 0
scalar RSUExampleScenario.node[14].nic.mac1609_4 TimesIntoBackoff 919
scalar RSUExampleScenario.node[14].nic.mac1609_4 SlotsBackoff 1411
scalar RSUExampleScenario.node[14].nic.mac1609_4 NumInternalContention 0
scalar RSUExampleScenario.node[14].nic.mac1609_4 totalBusyTime 3.352527
scalar RSUExampleScenario.node[14].nic.mac1609_4 retriesExceeded:count 0
attr source org_car2x_veins_modules_mac_sigRetriesExceeded
scalar RSUExampleScenario.node[14].nic.mac1609_4 sentAcks:count 0
attr source org_car2x_veins_modules_mac_sigSentAck
scalar RSUExampleScenario.node[14].nic.mac1609_4 sentPackets:count 919
attr source org_car2x_veins_modules_mac_sigSentPacket
scalar RSUExampleScenario.node[14].nic.mac1609_4 collisions:count 0
attr source org_car2x_veins_modules_mac_sigCollision
scalar RSUExampleScenario.node[14].nic.mac1609_4 channelBusy:timeavg 0.036480163220886
attr source org_car2x_veins_modules_mac_sigChannelBusy
scalar RSUExampleScenario.node[14].veinsmobility startTime 28.1
scalar RSUExampleScenario.node[14].veinsmobility totalTime 91.9
scalar RSUExampleScenario.node[14].veinsmobility stopTime 120
scalar RSUExampleScenario.node[14].veinsmobility minSpeed 7.4635886837064
scalar RSUExampleScenario.node[14].veinsmobility maxSpeed 10.376286989878
scalar RSUExampleScenario.node[14].veinsmobility totalDistance 772.56640406655
scalar RSUExampleScenario.node[14].veinsmobility totalCO2Emission 166.191685972
scalar RSUExampleScenario.node[15].appl generatedWSMs 0
scalar RSUExampleScenario.node[15].appl receivedWSMs 0
scalar RSUExampleScenario.node[15].appl generatedBSMs 899
scalar RSUExampleScenario.node[15].appl receivedBSMs 28423
scalar RSUExampleScenario.node[15].appl generatedWSAs 0
scalar RSUExampleScenario.node[15].appl receivedWSAs 0
scalar RSUExampleScenario.node[15].nic.phy80211p busyTime 0.035894460511675
scalar RSUExampleScenario.node[15].nic.mac1609_4 ReceivedUnicastPackets 0
scalar RSUExampleScenario.node[15].nic.mac1609_4 ReceivedBroadcasts 28423
scalar RSUExampleScenario.node[15].nic.mac1609_4 SentPackets 899
scalar RSUExampleScenario.node[15].nic.mac1609_4 SentAcknowledgements 0
scalar RSUExampleScenario.node[15].nic.mac1609_4 RetriesExceeded 0
scalar RSUExampleScenario.node[15].nic.mac1609_4 SNIRLostPackets 2605
scalar RSUExampleScenario.node[15].nic.mac1609_4 RXTXLostPackets 0
scalar RSUExampleScenario.node[15].nic.mac1609_4 TotalLostPackets 2605
scalar RSUExampleScenario.node[15].nic.mac1609_4 DroppedPacketsInMac 0
scalar RSUExampleScenario.node[15].nic.mac1609_4 TooLittleTime 0
scalar RSUExampleScenario.node[15].nic.mac1609_4 TimesIntoBackoff 899
scalar RSUExampleScenario.node[15].nic.mac1609_4 SlotsBackoff 1317
scalar RSUExampleScenario.node[15].nic.mac1609_4 NumInternalContention 0
scalar RSUExampleScenario.node[15].nic.mac1609_4 totalBusyTime 3.321307
scalar RSUExampleScenario.node[15].nic.mac1609_4 retriesExceeded:count 0
attr source org_car2x_veins_modules_mac_sigRetriesExceeded
scalar RSUExampleScenario.node[15].nic.mac1609_4 sentAcks:count 0
attr source org_car2x_veins_modules_mac_sigSentAck
scalar RSUExampleScenario.node[15].nic.mac1609_4 sentPackets:count 899
attr source org_car2x_veins_modules_mac_sigSentPacket
scalar RSUExampleScenario.node[15].nic.mac1609_4 collisions:count 0
attr source org_car2x_veins_modules_mac_sigCollision
scalar RSUExampleScenario.node[15].nic.mac1609_4 channelBusy:timeavg 0.036944460511674
attr source org_car2x_veins_modules_mac_sigChannelBusy
scalar RSUExampleScenario.node[15].veinsmobility startTime 30.1
scalar RSUExampleScenario.node[15].veinsmobility totalTime 89.9
scalar RSUExampleScenario.node[15].veinsmobility stopTime 120
scalar RSUExampleScenario.node[15].veinsmobility minSpeed 9.136176485513
scalar RSUExampleScenario.node[15].veinsmobility maxSpeed 10.410060089963
scalar RSUExampleScenario.node[15].veinsmobility totalDistance 853.94653290789
scalar RSUExampleScenario.node[15].veinsmobility totalCO2Emission 178.14980291172
scalar RSUExampleScenario.node[16].appl generatedWSMs 0
scalar RSUExampleScenario.node[16].appl receivedWSMs 0
scalar RSUExampleScenario.node[16].appl generatedBSMs 869
scalar RSUExampleScenario.node[16].appl receivedBSMs 28156
scalar RSUExampleScenario.node[16].appl generatedWSAs 0
scalar RSUExampleScenario.node[16].appl receivedWSAs 0
scalar RSUExampleScenario.node[16].nic.phy80211p busyTime 0.036595074798615
scalar RSUExampleScenario.node[16].nic.mac1609_4 ReceivedUnicastPackets 0
scalar RSUExampleScenario.node[16].nic.mac1609_4 ReceivedBroadcasts 28156
scalar RSUExampleScenario.node[16].nic.mac1609_4 SentPackets 869
scalar RSUExampleScenario.node[16].nic.mac1609_4 SentAcknowledgements 0
scalar RSUExampleScenario.node[16].nic.mac1609_4 RetriesExceeded 0
scalar RSUExampleScenario.node[16].nic.mac1609_4 SNIRLostPackets 2422
scalar RSUExampleScenario.node[16].nic.mac1609_4 RXTXLostPackets 0
scalar RSUExampleScenario.node[16].nic.mac1609_4 TotalLostPackets 2422
scalar RSUExampleScenario.node[16].nic.mac1609_4 DroppedPacketsInMac 0
scalar RSUExampleScenario.node[16].nic.mac1609_4 TooLittleTime 0
scalar RSUExampleScenario.node[16].nic.mac1609_4 TimesIntoBackoff 869
scalar RSUExampleScenario.node[16].nic.mac1609_4 SlotsBackoff 1319
scalar RSUExampleScenario.node[16].nic.mac1609_4 NumInternalContention 0
scalar RSUExampleScenario.node[16].nic.mac1609_4 totalBusyTime 3.271357
scalar RSUExampleScenario.node[16].nic.mac1609_4 retriesExceeded:count 0
attr source org_car2x_veins_modules_mac_sigRetriesExceeded
scalar RSUExampleScenario.node[16].nic.mac1609_4 sentAcks:count 0
attr source org_car2x_veins_modules_mac_sigSentAck
scalar RSUExampleScenario.node[16].nic.mac1609_4 sentPackets:count 869
attr source org_car2x_veins_modules_mac_sigSentPacket
scalar RSUExampleScenario.node[16].nic.mac1609_4 collisions:count 0
attr source org_car2x_veins_modules_mac_sigCollision
scalar RSUExampleScenario.node[16].nic.mac1609_4 channelBusy:timeavg 0.037645074798614
attr source org_car2x_veins_modules_mac_sigChannelBusy
scalar RSUExampleScenario.node[16].veinsmobility startTime 33.1
scalar RSUExampleScenario.node[16].veinsmobility totalTime 86.9
scalar RSUExampleScenario.node[16].veinsmobility stopTime 120
scalar RSUExampleScenario.node[16].veinsmobility minSpeed 9.1247260649495
scalar RSUExampleScenario.node[16].veinsmobility maxSpeed 10.570120255552
scalar RSUExampleScenario.node[16].veinsmobility totalDistance 836.92972232206
scalar RSUExampleScenario.node[16].veinsmobility totalCO2Emission 173.6410945607
scalar RSUExampleScenario.node[17].appl generatedWSMs 0
scalar RSUExampleScenario.node[17].appl receivedWSMs 0
scalar RSUExampleScenario.node[17].appl generatedBSMs 849
scalar RSUExampleScenario.node[17].appl receivedBSMs 26917
scalar RSUExampleScenario.node[17].appl generatedWSAs 0
scalar RSUExampleScenario.node[17].appl receivedWSAs 0
scalar RSUExampleScenario.node[17].nic.phy80211p busyTime 0.037065159010597
scalar RSUExampleScenario.node[17].nic.mac1609_4 ReceivedUnicastPackets 0
scalar RSUExampleScenario.node[17].nic.mac1609_4 ReceivedBroadcasts 26917
scalar RSUExampleScenario.node[17].nic.mac1609_4 SentPackets 849
scalar RSUExampleScenario.node[17].nic.mac1609_4 SentAcknowledgements 0
scalar RSUExampleScenario.node[17].nic.mac1609_4 RetriesExceeded 0
scalar RSUExampleScenario.node[17].nic.mac1609_4 SNIRLostPackets 3341
scalar RSUExampleScenario.node[17].nic.mac1609_4 RXTXLostPackets 0
scalar RSUExampleScenario.node[17].nic.mac1609_4 TotalLostPackets 3341
scalar RSUExampleScenario.node[17].nic.mac1609_4 DroppedPacketsInMac 0
scalar RSUExampleScenario.node[17].nic.mac1609_4 TooLittleTime 0
scalar RSUExampleScenario.node[17].nic.mac1609_4 TimesIntoBackoff 849
scalar RSUExampleScenario.node[17].nic.mac1609_4 SlotsBackoff 1255
scalar RSUExampleScenario.node[17].nic.mac1609_4 NumInternalContention 0
scalar RSUExampleScenario.node[17].nic.mac1609_4 totalBusyTime 3.235977
scalar RSUExampleScenario.node[17].nic.mac1609_4 retriesExceeded:count 0
attr source org_car2x_veins_modules_mac_sigRetriesExceeded
scalar RSUExampleScenario.node[17].nic.mac1609_4 sentAcks:count 0
attr source org_car2x_veins_modules_mac_sigSentAck
scalar RSUExampleScenario.node[17].nic.mac1609_4 sentPackets:count 849
attr source org_car2x_veins_modules_mac_sigSentPacket
scalar RSUExampleScenario.node[17].nic.mac1609_4 collisions:count 0
attr source org_car2x_veins_modules_mac_sigCollision
scalar RSUExampleScenario.node[17].nic.mac1609_4 channelBusy:timeavg 0.038115159010596
attr source org_car2x_veins_modules_mac_sigChannelBusy
scalar RSUExampleScenario.node[17].veinsmobility startTime 35.1
scalar RSUExampleScenario.node[17].veinsmobility totalTime 84.9
scalar RSUExampleScenario.node[17].veinsmobility stopTime 120
scalar RSUExampleScenario.node[17].veinsmobility minSpeed 7.1172543188255
scalar RSUExampleScenario.node[17].veinsmobility maxSpeed 7.2419890074922
scalar RSUExampleScenario.node[17].veinsmobility totalDistance 609.5592711054
scalar RSUExampleScenario.node[17].veinsmobility totalCO2Emission 138.94501805207
scalar RSUExampleScenario.node[18].appl generatedWSMs 0
scalar RSUExampleScenario.node[18].appl receivedWSMs 0
scalar RSUExampleScenario.node[18].appl generatedBSMs 839
scalar RSUExampleScenario.node[18].appl receivedBSMs 27843
scalar RSUExampleScenario.node[18].appl generatedWSAs 0
scalar RSUExampleScenario.node[18].appl receivedWSAs 0
scalar RSUExampleScenario.node[18].nic.phy80211p busyTime 0.037296209773536
scalar RSUExampleScenario.node[18].nic.mac1609_4 ReceivedUnicastPackets 0
scalar RSUExampleScenario.node[18].nic.mac1609_4 ReceivedBroadcasts 27843
scalar RSUExampleScenario.node[18].nic.mac1609_4 SentPackets 839
scalar RSUExampleScenario.node[18].nic.mac1609_4 SentAcknowledgements 0
scalar RSUExampleScenario.node[18].nic.mac1609_4 RetriesExceeded 0
scalar RSUExampleScenario.node[18].nic.mac1609_4 SNIRLostPackets 2245
scalar RSUExampleScenario.node[18].nic.mac1609_4 RXTXLostPackets 0
scalar RSUExampleScenario.node[18].nic.mac1609_4 TotalLostPackets 2245
scalar RSUExampleScenario.node[18].nic.mac1609_4 DroppedPacketsInMac 0
scalar RSUExampleScenario.node[18].nic.mac1609_4 TooLittleTime 0
scalar RSUExampleScenario.node[18].nic.mac1609_4 TimesIntoBackoff 839
scalar RSUExampleScenario.node[18].nic.mac1609_4 SlotsBackoff 1249
scalar RSUExampleScenario.node[18].nic.mac1609_4 NumInternalContention 0
scalar RSUExampleScenario.node[18].nic.mac1609_4 totalBusyTime 3.217247
scalar RSUExampleScenario.node[18].nic.mac1609_4 retriesExceeded:count 0
attr source org_car2x_veins_modules_mac_sigRetriesExceeded
scalar RSUExampleScenario.node[18].nic.mac1609_4 sentAcks:count 0
attr source org_car2x_veins_modules_mac_sigSentAck
scalar RSUExampleScenario.node[18].nic.mac1609_4 sentPackets:count 839
attr source org_car2x_veins_modules_mac_sigSentPacket
scalar RSUExampleScenario.node[18].nic.mac1609_4 collisions:count 0
attr source org_car2x_veins_modules_mac_sigCollision
scalar RSUExampleScenario.node[18].nic.mac1609_4 channelBusy:timeavg 0.038346209773535
attr source org_car2x_veins_modules_mac_sigChannelBusy
scalar RSUExampleScenario.node[18].veinsmobility startTime 36.1
scalar RSUExampleScenario.node[18].veinsmobility totalTime 83.9
scalar RSUExampleScenario.node[18].veinsmobility stopTime 120
scalar RSUExampleScenario.node[18].veinsmobility minSpeed 9.1146994615641
scalar RSUExampleScenario.node[18].veinsmobility maxSpeed 11.074048011497
scalar RSUExampleScenario.node[18].veinsmobility totalDistance 819.88868466643
scalar RSUExampleScenario.node[18].veinsmobility totalCO2Emission 170.31607272009
scalar RSUExampleScenario.node[19].appl generatedWSMs 0
scalar RSUExampleScenario.node[19].appl receivedWSMs 0
scalar RSUExampleScenario.node[19].appl generatedBSMs 809
scalar RSUExampleScenario.node[19].appl receivedBSMs 27763
scalar RSUExampleScenario.node[19].appl generatedWSAs 0
scalar RSUExampleScenario.node[19].appl receivedWSAs 0
scalar RSUExampleScenario.node[19].nic.phy80211p busyTime 0.037985067985164
scalar RSUExampleScenario.node[19].nic.mac1609_4 ReceivedUnicastPackets 0
scalar RSUExampleScenario.node[19].nic.mac1609_4 ReceivedBroadcasts 27763
scalar RSUExampleScenario.node[19].nic.mac1609_4 SentPackets 809
scalar RSUExampleScenario.node[19].nic.mac1609_4 SentAcknowledgements 0
scalar RSUExampleScenario.node[19].nic.mac1609_4 RetriesExceeded 0
scalar RSUExampleScenario.node[19].nic.mac1609_4 SNIRLostPackets 1785
scalar RSUExampleScenario.node[19].nic.mac1609_4 RXTXLostPackets 0
scalar RSUExampleScenario.node[19].nic.mac1609_4 TotalLostPackets 1785
scalar RSUExampleScenario.node[19].nic.mac1609_4 DroppedPacketsInMac 0
scalar RSUExampleScenario.node[19].nic.mac1609_4 TooLittleTime 0
scalar RSUExampleScenario.node[19].nic.mac1609_4 TimesIntoBackoff 809
scalar RSUExampleScenario.node[19].nic.mac1609_4 SlotsBackoff 1227
scalar RSUExampleScenario.node[19].nic.mac1609_4 NumInternalContention 0
scalar RSUExampleScenario.node[19].nic.mac1609_4 totalBusyTime 3.157937
scalar RSUExampleScenario.node[19].nic.mac1609_4 retriesExceeded:count 0
attr source org_car2x_veins_modules_mac_sigRetriesExceeded
scalar RSUExampleScenario.node[19].nic.mac1609_4 sentAcks:count 0
attr source org_car2x_veins_modules_mac_sigSentAck
scalar RSUExampleScenario.node[19].nic.mac1609_4 sentPackets:count 809
attr source org_car2x_veins_modules_mac_sigSentPacket
scalar RSUExampleScenario.node[19].nic.mac1609_4 collisions:count 0
attr source org_car2x_veins_modules_mac_sigCollision
scalar RSUExampleScenario.node[19].nic.mac1609_4 channelBusy:timeavg 0.039035067985163
attr source org_car2x_veins_modules_mac_sigChannelBusy
scalar RSUExampleScenario.node[19].veinsmobility startTime 39.1
scalar RSUExampleScenario.node[19].veinsmobility totalTime 80.9
scalar RSUExampleScenario.node[19].veinsmobility stopTime 120
scalar RSUExampleScenario.node[19].veinsmobility minSpeed 9.2609228068851
scalar RSUExampleScenario.node[19].veinsmobility maxSpeed 9.3857644793116
scalar RSUExampleScenario.node[19].veinsmobility totalDistance 754.22299840536
scalar RSUExampleScenario.node[19].veinsmobility totalCO2Emission 151.47332911388
scalar RSUExampleScenario.node[20].appl generatedWSMs 0
scalar RSUExampleScenario.node[20].appl receivedWSMs 0
scalar RSUExampleScenario.node[20].appl generatedBSMs 779
scalar RSUExampleScenario.node[20].appl receivedBSMs 26143
scalar RSUExampleScenario.node[20].appl generatedWSAs 0
scalar RSUExampleScenario.node[20].appl receivedWSAs 0
scalar RSUExampleScenario.node[20].nic.phy80211p busyTime 0.038686931964054
scalar RSUExampleScenario.node[20].nic.mac1609_4 ReceivedUnicastPackets 0
scalar RSUExampleScenario.node[20].nic.mac1609_4 ReceivedBroadcasts 26143
scalar RSUExampleScenario.node[20].nic.mac1609_4 SentPackets 779
scalar RSUExampleScenario.node[20].nic.mac1609_4 SentAcknowledgements 0
scalar RSUExampleScenario.node[20].nic.mac1609_4 RetriesExceeded 0
scalar RSUExampleScenario.node[20].nic.mac1609_4 SNIRLostPackets 2835
scalar RSUExampleScenario.node[20].nic.mac1609_4 RXTXLostPackets 0
scalar RSUExampleScenario.node[20].nic.mac1609_4 TotalLostPackets 2835
scalar RSUExampleScenario.node[20].nic.mac1609_4 DroppedPacketsInMac 0
scalar RSUExampleScenario.node[20].nic.mac1609_4 TooLittleTime 0
scalar RSUExampleScenario.node[20].nic.mac1609_4 TimesIntoBackoff 779
scalar RSUExampleScenario.node[20].nic.mac1609_4 SlotsBackoff 1202
scalar RSUExampleScenario.node[20].nic.mac1609_4 NumInternalContention 0
scalar RSUExampleScenario.node[20].nic.mac1609_4 totalBusyTime 3.095507
scalar RSUExampleScenario.node[20].nic.mac1609_4 retriesExceeded:count 0
attr source org_car2x_veins_modules_mac_sigRetriesExceeded
scalar RSUExampleScenario.node[20].nic.mac1609_4 sentAcks:count 0
attr source org_car2x_veins_modules_mac_sigSentAck
scalar RSUExampleScenario.node[20].nic.mac1609_4 sentPackets:count 779
attr source org_car2x_veins_modules_mac_sigSentPacket
scalar RSUExampleScenario.node[20].nic.mac1609_4 collisions:count 0
attr source org_car2x_veins_modules_mac_sigCollision
scalar RSUExampleScenario.node[20].nic.mac1609_4 channelBusy:timeavg 0.039736931964053
attr source org_car2x_veins_modules_mac_sigChannelBusy
scalar RSUExampleScenario.node[20].veinsmobility startTime 42.1
scalar RSUExampleScenario.node[20].veinsmobility totalTime 77.9
scalar RSUExampleScenario.node[20].veinsmobility stopTime 120
scalar RSUExampleScenario.node[20].veinsmobility minSpeed 7.0752109147999
scalar RSUExampleScenario.node[20].veinsmobility maxSpeed 11.823978219593
scalar RSUExampleScenario.node[20].veinsmobility totalDistance 594.65482920887
scalar RSUExampleScenario.node[20].veinsmobility totalCO2Emission 129.97924136976
scalar RSUExampleScenario.node[21].appl generatedWSMs 0
scalar RSUExampleScenario.node[21].appl receivedWSMs 0
scalar RSUExampleScenario.node[21].appl generatedBSMs 779
scalar RSUExampleScenario.node[21].appl receivedBSMs 27491
scalar RSUExampleScenario.node[21].appl generatedWSAs 0
scalar RSUExampleScenario.node[21].appl receivedWSAs 0
scalar RSUExampleScenario.node[21].nic.phy80211p busyTime 0.038686931964054
scalar RSUExampleScenario.node[21].nic.mac1609_4 ReceivedUnicastPackets 0
scalar RSUExampleScenario.node[21].nic.mac1609_4 ReceivedBroadcasts 27491
scalar RSUExampleScenario.node[21].nic.mac1609_4 SentPackets 779
scalar RSUExampleScenario.node[21].nic.mac1609_4 SentAcknowledgements 0
scalar RSUExampleScenario.node[21].nic.mac1609_4 RetriesExceeded 0
scalar RSUExampleScenario.node[21].nic.mac1609_4 SNIRLostPackets 1487
scalar RSUExampleScenario.node[21].nic.mac1609_4 RXTXLostPackets 0
scalar RSUExampleScenario.node[21].nic.mac1609_4 TotalLostPackets 1487
scalar RSUExampleScenario.node[21].nic.mac1609_4 DroppedPacketsInMac 0
scalar RSUExampleScenario.node[21].nic.mac1609_4 TooLittleTime 0
scalar RSUExampleScenario.node[21].nic.mac1609_4 TimesIntoBackoff 779
scalar RSUExampleScenario.node[21].nic.mac1609_4 SlotsBackoff 1112
scalar RSUExampleScenario.node[21].nic.mac1609_4 NumInternalContention 0
scalar RSUExampleScenario.node[21].nic.mac1609_4 totalBusyTime 3.095507
scalar RSUExampleScenario.node[21].nic.mac1609_4 retriesExceeded:count 0
attr source org_car2x_veins_modules_mac_sigRetriesExceeded
scalar RSUExampleScenario.node[21].nic.mac1609_4 sentAcks:count 0
attr source org_car2x_veins_modules_mac_sigSentAck
scalar RSUExampleScenario.node[21].nic.mac1609_4 sentPackets:count 779
attr source org_car2x_veins_modules_mac_sigSentPacket
scalar RSUExampleScenario.node[21].nic.mac1609_4 collisions:count 0
attr source org_car2x_veins_modules_mac_sigCollision
scalar RSUExampleScenario.node[21].nic.mac1609_4 channelBusy:timeavg 0.039736931964053
attr source org_car2x_veins_modules_mac_sigChannelBusy
scalar RSUExampleScenario.node[21].veinsmobility startTime 42.1
scalar RSUExampleScenario.node[21].veinsmobility totalTime 77.9
scalar RSUExampleScenario.node[21].veinsmobility stopTime 120
scalar RSUExampleScenario.node[21].veinsmobility minSpeed 8.7282903615583
scalar RSUExampleScenario.node[21].veinsmobility maxSpeed 8.853159751076
scalar RSUExampleScenario.node[21].veinsmobility totalDistance 684.75196798817
scalar RSUExampleScenario.node[21].veinsmobility totalCO2Emission 137.83158830209
scalar RSUExampleScenario.node[22].appl generatedWSMs 0
scalar RSUExampleScenario.node[22].appl receivedWSMs 0
scalar RSUExampleScenario.node[22].appl generatedBSMs 749
scalar RSUExampleScenario.node[22].appl receivedBSMs 26998
scalar RSUExampleScenario.node[22].appl generatedWSAs 0
scalar RSUExampleScenario.node[22].appl receivedWSAs 0
scalar RSUExampleScenario.node[22].nic.phy80211p busyTime 0.039361708945259
scalar RSUExampleScenario.node[22].nic.mac1609_4 ReceivedUnicastPackets 0
scalar RSUExampleScenario.node[22].nic.mac1609_4 ReceivedBroadcasts 26998
scalar RSUExampleScenario.node[22].nic.mac1609_4 SentPackets 749
scalar RSUExampleScenario.node[22].nic.mac1609_4 SentAcknowledgements 0
scalar RSUExampleScenario.node[22].nic.mac1609_4 RetriesExceeded 0
scalar RSUExampleScenario.node[22].nic.mac1609_4 SNIRLostPackets 1350
scalar RSUExampleScenario.node[22].nic.mac1609_4 RXTXLostPackets 0
scalar RSUExampleScenario.node[22].nic.mac1609_4 TotalLostPackets 1350
scalar RSUExampleScenario.node[22].nic.mac1609_4 DroppedPacketsInMac 0
scalar RSUExampleScenario.node[22].nic.mac1609_4 TooLittleTime 0
scalar RSUExampleScenario.node[22].nic.mac1609_4 TimesIntoBackoff 749
scalar RSUExampleScenario.node[22].nic.mac1609_4 SlotsBackoff 1149
scalar RSUExampleScenario.node[22].nic.mac1609_4 NumInternalContention 0
scalar RSUExampleScenario.node[22].nic.mac1609_4 totalBusyTime 3.026837
scalar RSUExampleScenario.node[22].nic.mac1609_4 retriesExceeded:count 0
attr source org_car2x_veins_modules_mac_sigRetriesExceeded
scalar RSUExampleScenario.node[22].nic.mac1609_4 sentAcks:count 0
attr source org_car2x_veins_modules_mac_sigSentAck
scalar RSUExampleScenario.node[22].nic.mac1609_4 sentPackets:count 749
attr source org_car2x_veins_modules_mac_sigSentPacket
scalar RSUExampleScenario.node[22].nic.mac1609_4 collisions:count 0
attr source org_car2x_veins_modules_mac_sigCollision
scalar RSUExampleScenario.node[22].nic.mac1609_4 channelBusy:timeavg 0.040411708945258
attr source org_car2x_veins_modules_mac_sigChannelBusy
scalar RSUExampleScenario.node[22].veinsmobility startTime 45.1
scalar RSUExampleScenario.node[22].veinsmobility totalTime 74.9
scalar RSUExampleScenario.node[22].veinsmobility stopTime 120
scalar RSUExampleScenario.node[22].veinsmobility minSpeed 8.6855696861813
scalar RSUExampleScenario.node[22].veinsmobility maxSpeed 10.053710767373
scalar RSUExampleScenario.node[22].veinsmobility totalDistance 668.23029509928
scalar RSUExampleScenario.node[22].veinsmobility totalCO2Emission 141.17479047989
scalar RSUExampleScenario.node[23].appl generatedWSMs 0
scalar RSUExampleScenario.node[23].appl receivedWSMs 0
scalar RSUExampleScenario.node[23].appl generatedBSMs 719
scalar RSUExampleScenario.node[23].appl receivedBSMs 26013
scalar RSUExampleScenario.node[23].appl generatedWSAs 0
scalar RSUExampleScenario.node[23].appl receivedWSAs 0
scalar RSUExampleScenario.node[23].nic.phy80211p busyTime 0.040049401947148
scalar RSUExampleScenario.node[23].nic.mac1609_4 ReceivedUnicastPackets 0
scalar RSUExampleScenario.node[23].nic.mac1609_4 ReceivedBroadcasts 26013
scalar RSUExampleScenario.node[23].nic.mac1609_4 SentPackets 719
scalar RSUExampleScenario.node[23].nic.mac1609_4 SentAcknowledgements 0
scalar RSUExampleScenario.node[23].nic.mac1609_4 RetriesExceeded 0
scalar RSUExampleScenario.node[23].nic.mac1609_4 SNIRLostPackets 1675
scalar RSUExampleScenario.node[23].nic.mac1609_4 RXTXLostPackets 0
scalar RSUExampleScenario.node[23].nic.mac1609_4 TotalLostPackets 1675
scalar RSUExampleScenario.node[23].nic.mac1609_4 DroppedPacketsInMac 0
scalar RSUExampleScenario.node[23].nic.mac1609_4 TooLittleTime 0
scalar RSUExampleScenario.node[23].nic.mac1609_4 TimesIntoBackoff 719
scalar RSUExampleScenario.node[23].nic.mac1609_4 SlotsBackoff 1085
scalar RSUExampleScenario.node[23].nic.mac1609_4 NumInternalContention 0
scalar RSUExampleScenario.node[23].nic.mac1609_4 totalBusyTime 2.955047
scalar RSUExampleScenario.node[23].nic.mac1609_4 retriesExceeded:count 0
attr source org_car2x_veins_modules_mac_sigRetriesExceeded
scalar RSUExampleScenario.node[23].nic.mac1609_4 sentAcks:count 0
attr source org_car2x_veins_modules_mac_sigSentAck
scalar RSUExampleScenario.node[23].nic.mac1609_4 sentPackets:count 719
attr source org_car2x_veins_modules_mac_sigSentPacket
scalar RSUExampleScenario.node[23].nic.mac1609_4 collisions:count 0
attr source org_car2x_veins_modules_mac_sigCollision
scalar RSUExampleScenario.node[23].nic.mac1609_4 channelBusy:timeavg 0.041099401947147
attr source org_car2x_veins_modules_mac_sigChannelBusy
scalar RSUExampleScenario.node[23].veinsmobility startTime 48.1
scalar RSUExampleScenario.node[23].veinsmobility totalTime 71.9
scalar RSUExampleScenario.node[23].veinsmobility stopTime 120
scalar RSUExampleScenario.node[23].veinsmobility minSpeed 7.3681596143127
scalar RSUExampleScenario.node[23].veinsmobility maxSpeed 7.4924552314754
scalar RSUExampleScenario.node[23].veinsmobility totalDistance 534.25849761082
scalar RSUExampleScenario.node[23].veinsmobility totalCO2Emission 119.12446069032
scalar RSUExampleScenario.node[24].appl generatedWSMs 0
scalar RSUExampleScenario.node[24].appl receivedWSMs 0
scalar RSUExampleScenario.node[24].appl generatedBSMs 709
scalar RSUExampleScenario.node[24].appl receivedBSMs 24733
scalar RSUExampleScenario.node[24].appl generatedWSAs 0
scalar RSUExampleScenario.node[24].appl receivedWSAs 0
scalar RSUExampleScenario.node[24].nic.phy80211p busyTime 0.040276897038081
scalar RSUExampleScenario.node[24].nic.mac1609_4 ReceivedUnicastPackets 0
scalar RSUExampleScenario.node[24].nic.mac1609_4 ReceivedBroadcasts 24733
scalar RSUExampleScenario.node[24].nic.mac1609_4 SentPackets 709
scalar RSUExampleScenario.node[24].nic.mac1609_4 SentAcknowledgements 0
scalar RSUExampleScenario.node[24].nic.mac1609_4 RetriesExceeded 0
scalar RSUExampleScenario.node[24].nic.mac1609_4 SNIRLostPackets 2725
scalar RSUExampleScenario.node[24].nic.mac1609_4 RXTXLostPackets 0
scalar RSUExampleScenario.node[24].nic.mac1609_4 TotalLostPackets 2725
scalar RSUExampleScenario.node[24].nic.mac1609_4 DroppedPacketsInMac 0
scalar RSUExampleScenario.node[24].nic.mac1609_4 TooLittleTime 0
scalar RSUExampleScenario.node[24].nic.mac1609_4 TimesIntoBackoff 709
scalar RSUExampleScenario.node[24].nic.mac1609_4 SlotsBackoff 1028
scalar RSUExampleScenario.node[24].nic.mac1609_4 NumInternalContention 0
scalar RSUExampleScenario.node[24].nic.mac1609_4 totalBusyTime 2.930077
scalar RSUExampleScenario.node[24].nic.mac1609_4 retriesExceeded:count 0
attr source org_car2x_veins_modules_mac_sigRetriesExceeded
scalar RSUExampleScenario.node[24].nic.mac1609_4 sentAcks:count 0
attr source org_car2x_veins_modules_mac_sigSentAck
scalar RSUExampleScenario.node[24].nic.mac1609_4 sentPackets:count 709
attr source org_car2x_veins_modules_mac_sigSentPacket
scalar RSUExampleScenario.node[24].nic.mac1609_4 collisions:count 0
attr source org_car2x_veins_modules_mac_sigCollision
scalar RSUExampleScenario.node[24].nic.mac1609_4 channelBusy:timeavg 0.04132689703808
attr source org_car2x_veins_modules_mac_sigChannelBusy
scalar RSUExampleScenario.node[24].veinsmobility startTime 49.1
scalar RSUExampleScenario.node[24].veinsmobility totalTime 70.9
scalar RSUExampleScenario.node[24].veinsmobility stopTime 120
scalar RSUExampleScenario.node[24].veinsmobility minSpeed 7.0655350137353
scalar RSUExampleScenario.node[24].veinsmobility maxSpeed 9.4073119410124
scalar RSUExampleScenario.node[24].veinsmobility totalDistance 579.78990788812
scalar RSUExampleScenario.node[24].veinsmobility totalCO2Emission 124.3259711997
scalar RSUExampleScenario.node[25].appl generatedWSMs 0
scalar RSUExampleScenario.node[25].appl receivedWSMs 0
scalar RSUExampleScenario.node[25].appl generatedBSMs 689
scalar RSUExampleScenario.node[25].appl receivedBSMs 25219
scalar RSUExampleScenario.node[25].appl generatedWSAs 0
scalar RSUExampleScenario.node[25].appl receivedWSAs 0
scalar RSUExampleScenario.node[25].nic.phy80211p busyTime 0.040721509433963
scalar RSUExampleScenario.node[25].nic.mac1609_4 ReceivedUnicastPackets 0
scalar RSUExampleScenario.node[25].nic.mac1609_4 ReceivedBroadcasts 25219
scalar RSUExampleScenario.node[25].nic.mac1609_4 SentPackets 689
scalar RSUExampleScenario.node[25].nic.mac1609_4 SentAcknowledgements 0
scalar RSUExampleScenario.node[25].nic.mac1609_4 RetriesExceeded 0
scalar RSUExampleScenario.node[25].nic.mac1609_4 SNIRLostPackets 1759
scalar RSUExampleScenario.node[25].nic.mac1609_4 RXTXLostPackets 0
scalar RSUExampleScenario.node[25].nic.mac1609_4 TotalLostPackets 1759
scalar RSUExampleScenario.node[25].nic.mac1609_4 DroppedPacketsInMac 0
scalar RSUExampleScenario.node[25].nic.mac1609_4 TooLittleTime 0
scalar RSUExampleScenario.node[25].nic.mac1609_4 TimesIntoBackoff 689
scalar RSUExampleScenario.node[25].nic.mac1609_4 SlotsBackoff 1018
scalar RSUExampleScenario.node[25].nic.mac1609_4 NumInternalContention 0
scalar RSUExampleScenario.node[25].nic.mac1609_4 totalBusyTime 2.878057
scalar RSUExampleScenario.node[25].nic.mac1609_4 retriesExceeded:count 0
attr source org_car2x_veins_modules_mac_sigRetriesExceeded
scalar RSUExampleScenario.node[25].nic.mac1609_4 sentAcks:count 0
attr source org_car2x_veins_modules_mac_sigSentAck
scalar RSUExampleScenario.node[25].nic.mac1609_4 sentPackets:count 689
attr source org_car2x_veins_modules_mac_sigSentPacket
scalar RSUExampleScenario.node[25].nic.mac1609_4 collisions:count 0
attr source org_car2x_veins_modules_mac_sigCollision
scalar RSUExampleScenario.node[25].nic.mac1609_4 channelBusy:timeavg 0.041771509433962
attr source org_car2x_veins_modules_mac_sigChannelBusy
scalar RSUExampleScenario.node[25].veinsmobility startTime 51.1
scalar RSUExampleScenario.node[25].veinsmobility totalTime 68.9
scalar RSUExampleScenario.node[25].veinsmobility stopTime 120
scalar RSUExampleScenario.node[25].veinsmobility minSpeed 7.3256202397294
scalar RSUExampleScenario.node[25].veinsmobility maxSpeed 9.3273646215145
scalar RSUExampleScenario.node[25].veinsmobility totalDistance 519.11614880396
scalar RSUExampleScenario.node[25].veinsmobility totalCO2Emission 119.10326437228
scalar RSUExampleScenario.node[26].appl generatedWSMs 0
scalar RSUExampleScenario.node[26].appl receivedWSMs 0
scalar RSUExampleScenario.node[26].appl generatedBSMs 659
scalar RSUExampleScenario.node[26].appl receivedBSMs 24375
scalar RSUExampleScenario.node[26].appl generatedWSAs 0
scalar RSUExampleScenario.node[26].appl receivedWSAs 0
scalar RSUExampleScenario.node[26].nic.phy80211p busyTime 0.04139168437026
scalar RSUExampleScenario.node[26].nic.mac1609_4 ReceivedUnicastPackets 0
scalar RSUExampleScenario.node[26].nic.mac1609_4 ReceivedBroadcasts 24375
scalar RSUExampleScenario.node[26].nic.mac1609_4 SentPackets 659
scalar RSUExampleScenario.node[26].nic.mac1609_4 SentAcknowledgements 0
scalar RSUExampleScenario.node[26].nic.mac1609_4 RetriesExceeded 0
scalar RSUExampleScenario.node[26].nic.mac1609_4 SNIRLostPackets 1853
scalar RSUExampleScenario.node[26].nic.mac1609_4 RXTXLostPackets 0
scalar RSUExampleScenario.node[26].nic.mac1609_4 TotalLostPackets 1853
scalar RSUExampleScenario.node[26].nic.mac1609_4 DroppedPacketsInMac 0
scalar RSUExampleScenario.node[26].nic.mac1609_4 TooLittleTime 0
scalar RSUExampleScenario.node[26].nic.mac1609_4 TimesIntoBackoff 659
scalar RSUExampleScenario.node[26].nic.mac1609_4 SlotsBackoff 966
scalar RSUExampleScenario.node[26].nic.mac1609_4 NumInternalContention 0
scalar RSUExampleScenario.node[26].nic.mac1609_4 totalBusyTime 2.796907
scalar RSUExampleScenario.node[26].nic.mac1609_4 retriesExceeded:count 0
attr source org_car2x_veins_modules_mac_sigRetriesExceeded
scalar RSUExampleScenario.node[26].nic.mac1609_4 sentAcks:count 0
attr source org_car2x_veins_modules_mac_sigSentAck
scalar RSUExampleScenario.node[26].nic.mac1609_4 sentPackets:count 659
attr source org_car2x_veins_modules_mac_sigSentPacket
scalar RSUExampleScenario.node[26].nic.mac1609_4 collisions:count 0
attr source org_car2x_veins_modules_mac_sigCollision
scalar RSUExampleScenario.node[26].nic.mac1609_4 channelBusy:timeavg 0.042441684370259
attr source org_car2x_veins_modules_mac_sigChannelBusy
scalar RSUExampleScenario.node[26].veinsmobility startTime 54.1
scalar RSUExampleScenario.node[26].veinsmobility totalTime 65.9
scalar RSUExampleScenario.node[26].veinsmobility stopTime 120
scalar RSUExampleScenario.node[26].veinsmobility minSpeed 7.2987784833322
scalar RSUExampleScenario.node[26].veinsmobility maxSpeed 9.7618858280151
scalar RSUExampleScenario.node[26].veinsmobility totalDistance 503.9732740563
scalar RSUExampleScenario.node[26].veinsmobility totalCO2Emission 115.91436664739
scalar RSUExampleScenario.node[27].appl generatedWSMs 0
scalar RSUExampleScenario.node[27].appl receivedWSMs 0
scalar RSUExampleScenario.node[27].appl generatedBSMs 639
scalar RSUExampleScenario.node[27].appl receivedBSMs 22944
scalar RSUExampleScenario.node[27].appl generatedWSAs 0
scalar RSUExampleScenario.node[27].appl receivedWSAs 0
scalar RSUExampleScenario.node[27].nic.phy80211p busyTime 0.04184087636933
scalar RSUExampleScenario.node[27].nic.mac1609_4 ReceivedUnicastPackets 0
scalar RSUExampleScenario.node[27].nic.mac1609_4 ReceivedBroadcasts 22944
scalar RSUExampleScenario.node[27].nic.mac1609_4 SentPackets 639
scalar RSUExampleScenario.node[27].nic.mac1609_4 SentAcknowledgements 0
scalar RSUExampleScenario.node[27].nic.mac1609_4 RetriesExceeded 0
scalar RSUExampleScenario.node[27].nic.mac1609_4 SNIRLostPackets 2764
scalar RSUExampleScenario.node[27].nic.mac1609_4 RXTXLostPackets 0
scalar RSUExampleScenario.node[27].nic.mac1609_4 TotalLostPackets 2764
scalar RSUExampleScenario.node[27].nic.mac1609_4 DroppedPacketsInMac 0
scalar RSUExampleScenario.node[27].nic.mac1609_4 TooLittleTime 0
scalar RSUExampleScenario.node[27].nic.mac1609_4 TimesIntoBackoff 639
scalar RSUExampleScenario.node[27].nic.mac1609_4 SlotsBackoff 948
scalar RSUExampleScenario.node[27].nic.mac1609_4 NumInternalContention 0
scalar RSUExampleScenario.node[27].nic.mac1609_4 totalBusyTime 2.740727
scalar RSUExampleScenario.node[27].nic.mac1609_4 retriesExceeded:count 0
attr source org_car2x_veins_modules_mac_sigRetriesExceeded
scalar RSUExampleScenario.node[27].nic.mac1609_4 sentAcks:count 0
attr source org_car2x_veins_modules_mac_sigSentAck
scalar RSUExampleScenario.node[27].nic.mac1609_4 sentPackets:count 639
attr source org_car2x_veins_modules_mac_sigSentPacket
scalar RSUExampleScenario.node[27].nic.mac1609_4 collisions:count 0
attr source org_car2x_veins_modules_mac_sigCollision
scalar RSUExampleScenario.node[27].nic.mac1609_4 channelBusy:timeavg 0.042890876369329
attr source org_car2x_veins_modules_mac_sigChannelBusy
scalar RSUExampleScenario.node[27].veinsmobility startTime 56.1
scalar RSUExampleScenario.node[27].veinsmobility totalTime 63.9
scalar RSUExampleScenario.node[27].veinsmobility stopTime 120
scalar RSUExampleScenario.node[27].veinsmobility minSpeed 7.071264355221
scalar RSUExampleScenario.node[27].veinsmobility maxSpeed 10.200975033672
scalar RSUExampleScenario.node[27].veinsmobility totalDistance 564.90577142328
scalar RSUExampleScenario.node[27].veinsmobility totalCO2Emission 115.13637273237
scalar RSUExampleScenario.node[28].appl generatedWSMs 0
scalar RSUExampleScenario.node[28].appl receivedWSMs 0
scalar RSUExampleScenario.node[28].appl generatedBSMs 629
scalar RSUExampleScenario.node[28].appl receivedBSMs 23469
scalar RSUExampleScenario.node[28].appl generatedWSAs 0
scalar RSUExampleScenario.node[28].appl receivedWSAs 0
scalar RSUExampleScenario.node[28].nic.phy80211p busyTime 0.042059650238477
scalar RSUExampleScenario.node[28].nic.mac1609_4 ReceivedUnicastPackets 0
scalar RSUExampleScenario.node[28].nic.mac1609_4 ReceivedBroadcasts 23469
scalar RSUExampleScenario.node[28].nic.mac1609_4 SentPackets 629
scalar RSUExampleScenario.node[28].nic.mac1609_4 SentAcknowledgements 0
scalar RSUExampleScenario.node[28].nic.mac1609_4 RetriesExceeded 0
scalar RSUExampleScenario.node[28].nic.mac1609_4 SNIRLostPackets 1969
scalar RSUExampleScenario.node[28].nic.mac1609_4 RXTXLostPackets 0
scalar RSUExampleScenario.node[28].nic.mac1609_4 TotalLostPackets 1969
scalar RSUExampleScenario.node[28].nic.mac1609_4 DroppedPacketsInMac 0
scalar RSUExampleScenario.node[28].nic.mac1609_4 TooLittleTime 0
scalar RSUExampleScenario.node[28].nic.mac1609_4 TimesIntoBackoff 629
scalar RSUExampleScenario.node[28].nic.mac1609_4 SlotsBackoff 937
scalar RSUExampleScenario.node[28].nic.mac1609_4 NumInternalContention 0
scalar RSUExampleScenario.node[28].nic.mac1609_4 totalBusyTime 2.711597
scalar RSUExampleScenario.node[28].nic.mac1609_4 retriesExceeded:count 0
attr source org_car2x_veins_modules_mac_sigRetriesExceeded
scalar RSUExampleScenario.node[28].nic.mac1609_4 sentAcks:count 0
attr source org_car2x_veins_modules_mac_sigSentAck
scalar RSUExampleScenario.node[28].nic.mac1609_4 sentPackets:count 629
attr source org_car2x_veins_modules_mac_sigSentPacket
scalar RSUExampleScenario.node[28].nic.mac1609_4 collisions:count 0
attr source org_car2x_veins_modules_mac_sigCollision
scalar RSUExampleScenario.node[28].nic.mac1609_4 channelBusy:timeavg 0.043109650238476
attr source org_car2x_veins_modules_mac_sigChannelBusy
scalar RSUExampleScenario.node[28].veinsmobility startTime 57.1
scalar RSUExampleScenario.node[28].veinsmobility totalTime 62.9
scalar RSUExampleScenario.node[28].veinsmobility stopTime 120
scalar RSUExampleScenario.node[28].veinsmobility minSpeed 7.281273539802
scalar RSUExampleScenario.node[28].veinsmobility maxSpeed 10.34556330871
scalar RSUExampleScenario.node[28].veinsmobility totalDistance 488.88125053265
scalar RSUExampleScenario.node[28].veinsmobility totalCO2Emission 112.77025389676
scalar RSUExampleScenario.node[29].appl generatedWSMs 0
scalar RSUExampleScenario.node[29].appl receivedWSMs 0
scalar RSUExampleScenario.node[29].appl generatedBSMs 599
scalar RSUExampleScenario.node[29].appl receivedBSMs 22464
scalar RSUExampleScenario.node[29].appl generatedWSAs 0
scalar RSUExampleScenario.node[29].appl receivedWSAs 0
scalar RSUExampleScenario.node[29].nic.phy80211p busyTime 0.042707712854763
scalar RSUExampleScenario.node[29].nic.mac1609_4 ReceivedUnicastPackets 0
scalar RSUExampleScenario.node[29].nic.mac1609_4 ReceivedBroadcasts 22464
scalar RSUExampleScenario.node[29].nic.mac1609_4 SentPackets 599
scalar RSUExampleScenario.node[29].nic.mac1609_4 SentAcknowledgements 0
scalar RSUExampleScenario.node[29].nic.mac1609_4 RetriesExceeded 0
scalar RSUExampleScenario.node[29].nic.mac1609_4 SNIRLostPackets 2134
scalar RSUExampleScenario.node[29].nic.mac1609_4 RXTXLostPackets 0
scalar RSUExampleScenario.node[29].nic.mac1609_4 TotalLostPackets 2134
scalar RSUExampleScenario.node[29].nic.mac1609_4 DroppedPacketsInMac 0
scalar RSUExampleScenario.node[29].nic.mac1609_4 TooLittleTime 0
scalar RSUExampleScenario.node[29].nic.mac1609_4 TimesIntoBackoff 599
scalar RSUExampleScenario.node[29].nic.mac1609_4 SlotsBackoff 870
scalar RSUExampleScenario.node[29].nic.mac1609_4 NumInternalContention 0
scalar RSUExampleScenario.node[29].nic.mac1609_4 totalBusyTime 2.621087
scalar RSUExampleScenario.node[29].nic.mac1609_4 retriesExceeded:count 0
attr source org_car2x_veins_modules_mac_sigRetriesExceeded
scalar RSUExampleScenario.node[29].nic.mac1609_4 sentAcks:count 0
attr source org_car2x_veins_modules_mac_sigSentAck
scalar RSUExampleScenario.node[29].nic.mac1609_4 sentPackets:count 599
attr source org_car2x_veins_modules_mac_sigSentPacket
scalar RSUExampleScenario.node[29].nic.mac1609_4 collisions:count 0
attr source org_car2x_veins_modules_mac_sigCollision
scalar RSUExampleScenario.node[29].nic.mac1609_4 channelBusy:timeavg 0.043757712854762
attr source org_car2x_veins_modules_mac_sigChannelBusy
scalar RSUExampleScenario.node[29].veinsmobility startTime 60.1
scalar RSUExampleScenario.node[29].veinsmobility totalTime 59.9
scalar RSUExampleScenario.node[29].veinsmobility stopTime 120
scalar RSUExampleScenario.node[29].veinsmobility minSpeed 7.2907033718287
scalar RSUExampleScenario.node[29].veinsmobility maxSpeed 10.531733379994
scalar RSUExampleScenario.node[29].veinsmobility totalDistance 473.73835172686
scalar RSUExampleScenario.node[29].veinsmobility totalCO2Emission 108.99831278589
scalar RSUExampleScenario.node[30].appl generatedWSMs 0
scalar RSUExampleScenario.node[30].appl receivedWSMs 0
scalar RSUExampleScenario.node[30].appl generatedBSMs 569
scalar RSUExampleScenario.node[30].appl receivedBSMs 21300
scalar RSUExampleScenario.node[30].appl generatedWSAs 0
scalar RSUExampleScenario.node[30].appl receivedWSAs 0
scalar RSUExampleScenario.node[30].nic.phy80211p busyTime 0.043369279437617
scalar RSUExampleScenario.node[30].nic.mac1609_4 ReceivedUnicastPackets 0
scalar RSUExampleScenario.node[30].nic.mac1609_4 ReceivedBroadcasts 21300
scalar RSUExampleScenario.node[30].nic.mac1609_4 SentPackets 569
scalar RSUExampleScenario.node[30].nic.mac1609_4 SentAcknowledgements 0
scalar RSUExampleScenario.node[30].nic.mac1609_4 RetriesExceeded 0
scalar RSUExampleScenario.node[30].nic.mac1609_4 SNIRLostPackets 2428
scalar RSUExampleScenario.node[30].nic.mac1609_4 RXTXLostPackets 0
scalar RSUExampleScenario.node[30].nic.mac1609_4 TotalLostPackets 2428
scalar RSUExampleScenario.node[30].nic.mac1609_4 DroppedPacketsInMac 0
scalar RSUExampleScenario.node[30].nic.mac1609_4 TooLittleTime 0
scalar RSUExampleScenario.node[30].nic.mac1609_4 TimesIntoBackoff 958
scalar RSUExampleScenario.node[30].nic.mac1609_4 SlotsBackoff 1459
scalar RSUExampleScenario.node[30].nic.mac1609_4 NumInternalContention 0
scalar RSUExampleScenario.node[30].nic.mac1609_4 totalBusyTime 2.527457
scalar RSUExampleScenario.node[30].nic.mac1609_4 retriesExceeded:count 0
attr source org_car2x_veins_modules_mac_sigRetriesExceeded
scalar RSUExampleScenario.node[30].nic.mac1609_4 sentAcks:count 0
attr source org_car2x_veins_modules_mac_sigSentAck
scalar RSUExampleScenario.node[30].nic.mac1609_4 sentPackets:count 569
attr source org_car2x_veins_modules_mac_sigSentPacket
scalar RSUExampleScenario.node[30].nic.mac1609_4 collisions:count 0
attr source org_car2x_veins_modules_mac_sigCollision
scalar RSUExampleScenario.node[30].nic.mac1609_4 channelBusy:timeavg 0.044419279437616
attr source org_car2x_veins_modules_mac_sigChannelBusy
scalar RSUExampleScenario.node[30].veinsmobility startTime 63.1
scalar RSUExampleScenario.node[30].veinsmobility totalTime 56.9
scalar RSUExampleScenario.node[30].veinsmobility stopTime 120
scalar RSUExampleScenario.node[30].veinsmobility minSpeed 7.0734083360195
scalar RSUExampleScenario.node[30].veinsmobility maxSpeed 11.518484034209
scalar RSUExampleScenario.node[30].veinsmobility totalDistance 550.00366651931
[...]
scalar RSUExampleScenario.node[50].appl generatedWSAs 0
scalar RSUExampleScenario.node[50].appl receivedWSAs 0
scalar RSUExampleScenario.node[50].nic.phy80211p busyTime 0.050450469798655
scalar RSUExampleScenario.node[50].nic.mac1609_4 ReceivedUnicastPackets 0
scalar RSUExampleScenario.node[50].nic.mac1609_4 ReceivedBroadcasts 4913
scalar RSUExampleScenario.node[50].nic.mac1609_4 SentPackets 149
scalar RSUExampleScenario.node[50].nic.mac1609_4 SentAcknowledgements 0
scalar RSUExampleScenario.node[50].nic.mac1609_4 RetriesExceeded 0
scalar RSUExampleScenario.node[50].nic.mac1609_4 SNIRLostPackets 2315
scalar RSUExampleScenario.node[50].nic.mac1609_4 RXTXLostPackets 0
scalar RSUExampleScenario.node[50].nic.mac1609_4 TotalLostPackets 2315
scalar RSUExampleScenario.node[50].nic.mac1609_4 DroppedPacketsInMac 0
scalar RSUExampleScenario.node[50].nic.mac1609_4 TooLittleTime 0
scalar RSUExampleScenario.node[50].nic.mac1609_4 TimesIntoBackoff 149
scalar RSUExampleScenario.node[50].nic.mac1609_4 SlotsBackoff 234
scalar RSUExampleScenario.node[50].nic.mac1609_4 NumInternalContention 0
scalar RSUExampleScenario.node[50].nic.mac1609_4 totalBusyTime 0.767357
scalar RSUExampleScenario.node[50].nic.mac1609_4 retriesExceeded:count 0
attr source org_car2x_veins_modules_mac_sigRetriesExceeded
scalar RSUExampleScenario.node[50].nic.mac1609_4 sentAcks:count 0
attr source org_car2x_veins_modules_mac_sigSentAck
scalar RSUExampleScenario.node[50].nic.mac1609_4 sentPackets:count 149
attr source org_car2x_veins_modules_mac_sigSentPacket
scalar RSUExampleScenario.node[50].nic.mac1609_4 collisions:count 0
attr source org_car2x_veins_modules_mac_sigCollision
scalar RSUExampleScenario.node[50].nic.mac1609_4 channelBusy:timeavg 0.051500469798655
attr source org_car2x_veins_modules_mac_sigChannelBusy
scalar RSUExampleScenario.node[50].veinsmobility startTime 105.1
scalar RSUExampleScenario.node[50].veinsmobility totalTime 14.9
scalar RSUExampleScenario.node[50].veinsmobility stopTime 120
scalar RSUExampleScenario.node[50].veinsmobility minSpeed 9.1503953732161
scalar RSUExampleScenario.node[50].veinsmobility maxSpeed 9.2747586842877
scalar RSUExampleScenario.node[50].veinsmobility totalDistance 137.36243565802
scalar RSUExampleScenario.node[50].veinsmobility totalCO2Emission 26.914791964447
scalar RSUExampleScenario.node[51].appl generatedWSMs 0
scalar RSUExampleScenario.node[51].appl receivedWSMs 0
scalar RSUExampleScenario.node[51].appl generatedBSMs 149
scalar RSUExampleScenario.node[51].appl receivedBSMs 5096
scalar RSUExampleScenario.node[51].appl generatedWSAs 0
scalar RSUExampleScenario.node[51].appl receivedWSAs 0
scalar RSUExampleScenario.node[51].nic.phy80211p busyTime 0.050450469798655
scalar RSUExampleScenario.node[51].nic.mac1609_4 ReceivedUnicastPackets 0
scalar RSUExampleScenario.node[51].nic.mac1609_4 ReceivedBroadcasts 5096
scalar RSUExampleScenario.node[51].nic.mac1609_4 SentPackets 149
scalar RSUExampleScenario.node[51].nic.mac1609_4 SentAcknowledgements 0
scalar RSUExampleScenario.node[51].nic.mac1609_4 RetriesExceeded 0
scalar RSUExampleScenario.node[51].nic.mac1609_4 SNIRLostPackets 2132
scalar RSUExampleScenario.node[51].nic.mac1609_4 RXTXLostPackets 0
scalar RSUExampleScenario.node[51].nic.mac1609_4 TotalLostPackets 2132
scalar RSUExampleScenario.node[51].nic.mac1609_4 DroppedPacketsInMac 0
scalar RSUExampleScenario.node[51].nic.mac1609_4 TooLittleTime 0
scalar RSUExampleScenario.node[51].nic.mac1609_4 TimesIntoBackoff 149
scalar RSUExampleScenario.node[51].nic.mac1609_4 SlotsBackoff 227
scalar RSUExampleScenario.node[51].nic.mac1609_4 NumInternalContention 0
scalar RSUExampleScenario.node[51].nic.mac1609_4 totalBusyTime 0.767357
scalar RSUExampleScenario.node[51].nic.mac1609_4 retriesExceeded:count 0
attr source org_car2x_veins_modules_mac_sigRetriesExceeded
scalar RSUExampleScenario.node[51].nic.mac1609_4 sentAcks:count 0
attr source org_car2x_veins_modules_mac_sigSentAck
scalar RSUExampleScenario.node[51].nic.mac1609_4 sentPackets:count 149
attr source org_car2x_veins_modules_mac_sigSentPacket
scalar RSUExampleScenario.node[51].nic.mac1609_4 collisions:count 0
attr source org_car2x_veins_modules_mac_sigCollision
scalar RSUExampleScenario.node[51].nic.mac1609_4 channelBusy:timeavg 0.051500469798655
attr source org_car2x_veins_modules_mac_sigChannelBusy
scalar RSUExampleScenario.node[51].veinsmobility startTime 105.1
scalar RSUExampleScenario.node[51].veinsmobility totalTime 14.9
scalar RSUExampleScenario.node[51].veinsmobility stopTime 120
scalar RSUExampleScenario.node[51].veinsmobility minSpeed 8.9745787746418
scalar RSUExampleScenario.node[51].veinsmobility maxSpeed 11.106512952905
scalar RSUExampleScenario.node[51].veinsmobility totalDistance 143.71880635756
scalar RSUExampleScenario.node[51].veinsmobility totalCO2Emission 26.312510194129
scalar RSUExampleScenario.node[52].appl generatedWSMs 0
scalar RSUExampleScenario.node[52].appl receivedWSMs 0
scalar RSUExampleScenario.node[52].appl generatedBSMs 119
scalar RSUExampleScenario.node[52].appl receivedBSMs 4051
scalar RSUExampleScenario.node[52].appl generatedWSAs 0
scalar RSUExampleScenario.node[52].appl receivedWSAs 0
scalar RSUExampleScenario.node[52].nic.phy80211p busyTime 0.051003697478989
scalar RSUExampleScenario.node[52].nic.mac1609_4 ReceivedUnicastPackets 0
scalar RSUExampleScenario.node[52].nic.mac1609_4 ReceivedBroadcasts 4051
scalar RSUExampleScenario.node[52].nic.mac1609_4 SentPackets 119
scalar RSUExampleScenario.node[52].nic.mac1609_4 SentAcknowledgements 0
scalar RSUExampleScenario.node[52].nic.mac1609_4 RetriesExceeded 0
scalar RSUExampleScenario.node[52].nic.mac1609_4 SNIRLostPackets 1785
scalar RSUExampleScenario.node[52].nic.mac1609_4 RXTXLostPackets 0
scalar RSUExampleScenario.node[52].nic.mac1609_4 TotalLostPackets 1785
scalar RSUExampleScenario.node[52].nic.mac1609_4 DroppedPacketsInMac 0
scalar RSUExampleScenario.node[52].nic.mac1609_4 TooLittleTime 0
scalar RSUExampleScenario.node[52].nic.mac1609_4 TimesIntoBackoff 119
scalar RSUExampleScenario.node[52].nic.mac1609_4 SlotsBackoff 180
scalar RSUExampleScenario.node[52].nic.mac1609_4 NumInternalContention 0
scalar RSUExampleScenario.node[52].nic.mac1609_4 totalBusyTime 0.619439
scalar RSUExampleScenario.node[52].nic.mac1609_4 retriesExceeded:count 0
attr source org_car2x_veins_modules_mac_sigRetriesExceeded
scalar RSUExampleScenario.node[52].nic.mac1609_4 sentAcks:count 0
attr source org_car2x_veins_modules_mac_sigSentAck
scalar RSUExampleScenario.node[52].nic.mac1609_4 sentPackets:count 119
attr source org_car2x_veins_modules_mac_sigSentPacket
scalar RSUExampleScenario.node[52].nic.mac1609_4 collisions:count 0
attr source org_car2x_veins_modules_mac_sigCollision
scalar RSUExampleScenario.node[52].nic.mac1609_4 channelBusy:timeavg 0.052053697478989
attr source org_car2x_veins_modules_mac_sigChannelBusy
scalar RSUExampleScenario.node[52].veinsmobility startTime 108.1
scalar RSUExampleScenario.node[52].veinsmobility totalTime 11.9
scalar RSUExampleScenario.node[52].veinsmobility stopTime 120
scalar RSUExampleScenario.node[52].veinsmobility minSpeed 9.3972407875628
scalar RSUExampleScenario.node[52].veinsmobility maxSpeed 9.5202436314941
scalar RSUExampleScenario.node[52].veinsmobility totalDistance 112.60034061879
scalar RSUExampleScenario.node[52].veinsmobility totalCO2Emission 21.984547382578
scalar RSUExampleScenario.node[53].appl generatedWSMs 0
scalar RSUExampleScenario.node[53].appl receivedWSMs 0
scalar RSUExampleScenario.node[53].appl generatedBSMs 89
scalar RSUExampleScenario.node[53].appl receivedBSMs 3016
scalar RSUExampleScenario.node[53].appl generatedWSAs 0
scalar RSUExampleScenario.node[53].appl receivedWSAs 0
scalar RSUExampleScenario.node[53].nic.phy80211p busyTime 0.051719550561796
scalar RSUExampleScenario.node[53].nic.mac1609_4 ReceivedUnicastPackets 0
scalar RSUExampleScenario.node[53].nic.mac1609_4 ReceivedBroadcasts 3016
scalar RSUExampleScenario.node[53].nic.mac1609_4 SentPackets 89
scalar RSUExampleScenario.node[53].nic.mac1609_4 SentAcknowledgements 0
scalar RSUExampleScenario.node[53].nic.mac1609_4 RetriesExceeded 0
scalar RSUExampleScenario.node[53].nic.mac1609_4 SNIRLostPackets 1410
scalar RSUExampleScenario.node[53].nic.mac1609_4 RXTXLostPackets 0
scalar RSUExampleScenario.node[53].nic.mac1609_4 TotalLostPackets 1410
scalar RSUExampleScenario.node[53].nic.mac1609_4 DroppedPacketsInMac 0
scalar RSUExampleScenario.node[53].nic.mac1609_4 TooLittleTime 0
scalar RSUExampleScenario.node[53].nic.mac1609_4 TimesIntoBackoff 89
scalar RSUExampleScenario.node[53].nic.mac1609_4 SlotsBackoff 134
scalar RSUExampleScenario.node[53].nic.mac1609_4 NumInternalContention 0
scalar RSUExampleScenario.node[53].nic.mac1609_4 totalBusyTime 0.469649
scalar RSUExampleScenario.node[53].nic.mac1609_4 retriesExceeded:count 0
attr source org_car2x_veins_modules_mac_sigRetriesExceeded
scalar RSUExampleScenario.node[53].nic.mac1609_4 sentAcks:count 0
attr source org_car2x_veins_modules_mac_sigSentAck
scalar RSUExampleScenario.node[53].nic.mac1609_4 sentPackets:count 89
attr source org_car2x_veins_modules_mac_sigSentPacket
scalar RSUExampleScenario.node[53].nic.mac1609_4 collisions:count 0
attr source org_car2x_veins_modules_mac_sigCollision
scalar RSUExampleScenario.node[53].nic.mac1609_4 channelBusy:timeavg 0.052769550561796
attr source org_car2x_veins_modules_mac_sigChannelBusy
scalar RSUExampleScenario.node[53].veinsmobility startTime 111.1
scalar RSUExampleScenario.node[53].veinsmobility totalTime 8.9
scalar RSUExampleScenario.node[53].veinsmobility stopTime 120
scalar RSUExampleScenario.node[53].veinsmobility minSpeed 8.7014793820758
scalar RSUExampleScenario.node[53].veinsmobility maxSpeed 8.8256450570966
scalar RSUExampleScenario.node[53].veinsmobility totalDistance 77.988360017383
scalar RSUExampleScenario.node[53].veinsmobility totalCO2Emission 15.654424357738
scalar RSUExampleScenario.node[54].appl generatedWSMs 0
scalar RSUExampleScenario.node[54].appl receivedWSMs 0
scalar RSUExampleScenario.node[54].appl generatedBSMs 79
scalar RSUExampleScenario.node[54].appl receivedBSMs 2632
scalar RSUExampleScenario.node[54].appl generatedWSAs 0
scalar RSUExampleScenario.node[54].appl receivedWSAs 0
scalar RSUExampleScenario.node[54].nic.phy80211p busyTime 0.05194734177215
scalar RSUExampleScenario.node[54].nic.mac1609_4 ReceivedUnicastPackets 0
scalar RSUExampleScenario.node[54].nic.mac1609_4 ReceivedBroadcasts 2632
scalar RSUExampleScenario.node[54].nic.mac1609_4 SentPackets 79
scalar RSUExampleScenario.node[54].nic.mac1609_4 SentAcknowledgements 0
scalar RSUExampleScenario.node[54].nic.mac1609_4 RetriesExceeded 0
scalar RSUExampleScenario.node[54].nic.mac1609_4 SNIRLostPackets 1314
scalar RSUExampleScenario.node[54].nic.mac1609_4 RXTXLostPackets 0
scalar RSUExampleScenario.node[54].nic.mac1609_4 TotalLostPackets 1314
scalar RSUExampleScenario.node[54].nic.mac1609_4 DroppedPacketsInMac 0
scalar RSUExampleScenario.node[54].nic.mac1609_4 TooLittleTime 0
scalar RSUExampleScenario.node[54].nic.mac1609_4 TimesIntoBackoff 79
scalar RSUExampleScenario.node[54].nic.mac1609_4 SlotsBackoff 111
scalar RSUExampleScenario.node[54].nic.mac1609_4 NumInternalContention 0
scalar RSUExampleScenario.node[54].nic.mac1609_4 totalBusyTime 0.418679
scalar RSUExampleScenario.node[54].nic.mac1609_4 retriesExceeded:count 0
attr source org_car2x_veins_modules_mac_sigRetriesExceeded
scalar RSUExampleScenario.node[54].nic.mac1609_4 sentAcks:count 0
attr source org_car2x_veins_modules_mac_sigSentAck
scalar RSUExampleScenario.node[54].nic.mac1609_4 sentPackets:count 79
attr source org_car2x_veins_modules_mac_sigSentPacket
scalar RSUExampleScenario.node[54].nic.mac1609_4 collisions:count 0
attr source org_car2x_veins_modules_mac_sigCollision
scalar RSUExampleScenario.node[54].nic.mac1609_4 channelBusy:timeavg 0.05299734177215
attr source org_car2x_veins_modules_mac_sigChannelBusy
scalar RSUExampleScenario.node[54].veinsmobility startTime 112.1
scalar RSUExampleScenario.node[54].veinsmobility totalTime 7.9
scalar RSUExampleScenario.node[54].veinsmobility stopTime 120
scalar RSUExampleScenario.node[54].veinsmobility minSpeed 9.0829742760263
scalar RSUExampleScenario.node[54].veinsmobility maxSpeed 9.2076342330412
scalar RSUExampleScenario.node[54].veinsmobility totalDistance 72.264000131599
scalar RSUExampleScenario.node[54].veinsmobility totalCO2Emission 14.24792882098
scalar RSUExampleScenario.node[55].appl generatedWSMs 0
scalar RSUExampleScenario.node[55].appl receivedWSMs 0
scalar RSUExampleScenario.node[55].appl generatedBSMs 59
scalar RSUExampleScenario.node[55].appl receivedBSMs 1984
scalar RSUExampleScenario.node[55].appl generatedWSAs 0
scalar RSUExampleScenario.node[55].appl receivedWSAs 0
scalar RSUExampleScenario.node[55].nic.phy80211p busyTime 0.052282033898304
scalar RSUExampleScenario.node[55].nic.mac1609_4 ReceivedUnicastPackets 0
scalar RSUExampleScenario.node[55].nic.mac1609_4 ReceivedBroadcasts 1984
scalar RSUExampleScenario.node[55].nic.mac1609_4 SentPackets 59
scalar RSUExampleScenario.node[55].nic.mac1609_4 SentAcknowledgements 0
scalar RSUExampleScenario.node[55].nic.mac1609_4 RetriesExceeded 0
scalar RSUExampleScenario.node[55].nic.mac1609_4 SNIRLostPackets 982
scalar RSUExampleScenario.node[55].nic.mac1609_4 RXTXLostPackets 0
scalar RSUExampleScenario.node[55].nic.mac1609_4 TotalLostPackets 982
scalar RSUExampleScenario.node[55].nic.mac1609_4 DroppedPacketsInMac 0
scalar RSUExampleScenario.node[55].nic.mac1609_4 TooLittleTime 0
scalar RSUExampleScenario.node[55].nic.mac1609_4 TimesIntoBackoff 59
scalar RSUExampleScenario.node[55].nic.mac1609_4 SlotsBackoff 77
scalar RSUExampleScenario.node[55].nic.mac1609_4 NumInternalContention 0
scalar RSUExampleScenario.node[55].nic.mac1609_4 totalBusyTime 0.314659
scalar RSUExampleScenario.node[55].nic.mac1609_4 retriesExceeded:count 0
attr source org_car2x_veins_modules_mac_sigRetriesExceeded
scalar RSUExampleScenario.node[55].nic.mac1609_4 sentAcks:count 0
attr source org_car2x_veins_modules_mac_sigSentAck
scalar RSUExampleScenario.node[55].nic.mac1609_4 sentPackets:count 59
attr source org_car2x_veins_modules_mac_sigSentPacket
scalar RSUExampleScenario.node[55].nic.mac1609_4 collisions:count 0
attr source org_car2x_veins_modules_mac_sigCollision
scalar RSUExampleScenario.node[55].nic.mac1609_4 channelBusy:timeavg 0.053332033898304
attr source org_car2x_veins_modules_mac_sigChannelBusy
scalar RSUExampleScenario.node[55].veinsmobility startTime 114.1
scalar RSUExampleScenario.node[55].veinsmobility totalTime 5.9
scalar RSUExampleScenario.node[55].veinsmobility stopTime 120
scalar RSUExampleScenario.node[55].veinsmobility minSpeed 9.3745091342945
scalar RSUExampleScenario.node[55].veinsmobility maxSpeed 10.91165524538
scalar RSUExampleScenario.node[55].veinsmobility totalDistance 59.192901991504
scalar RSUExampleScenario.node[55].veinsmobility totalCO2Emission 9.3318440379185
scalar RSUExampleScenario.node[56].appl generatedWSMs 0
scalar RSUExampleScenario.node[56].appl receivedWSMs 0
scalar RSUExampleScenario.node[56].appl generatedBSMs 29
scalar RSUExampleScenario.node[56].appl receivedBSMs 975
scalar RSUExampleScenario.node[56].appl generatedWSAs 0
scalar RSUExampleScenario.node[56].appl receivedWSAs 0
scalar RSUExampleScenario.node[56].nic.phy80211p busyTime 0.052573793103449
scalar RSUExampleScenario.node[56].nic.mac1609_4 ReceivedUnicastPackets 0
scalar RSUExampleScenario.node[56].nic.mac1609_4 ReceivedBroadcasts 975
scalar RSUExampleScenario.node[56].nic.mac1609_4 SentPackets 29
scalar RSUExampleScenario.node[56].nic.mac1609_4 SentAcknowledgements 0
scalar RSUExampleScenario.node[56].nic.mac1609_4 RetriesExceeded 0
scalar RSUExampleScenario.node[56].nic.mac1609_4 SNIRLostPackets 491
scalar RSUExampleScenario.node[56].nic.mac1609_4 RXTXLostPackets 0
scalar RSUExampleScenario.node[56].nic.mac1609_4 TotalLostPackets 491
scalar RSUExampleScenario.node[56].nic.mac1609_4 DroppedPacketsInMac 0
scalar RSUExampleScenario.node[56].nic.mac1609_4 TooLittleTime 0
scalar RSUExampleScenario.node[56].nic.mac1609_4 TimesIntoBackoff 29
scalar RSUExampleScenario.node[56].nic.mac1609_4 SlotsBackoff 38
scalar RSUExampleScenario.node[56].nic.mac1609_4 NumInternalContention 0
scalar RSUExampleScenario.node[56].nic.mac1609_4 totalBusyTime 0.155509
scalar RSUExampleScenario.node[56].nic.mac1609_4 retriesExceeded:count 0
attr source org_car2x_veins_modules_mac_sigRetriesExceeded
scalar RSUExampleScenario.node[56].nic.mac1609_4 sentAcks:count 0
attr source org_car2x_veins_modules_mac_sigSentAck
scalar RSUExampleScenario.node[56].nic.mac1609_4 sentPackets:count 29
attr source org_car2x_veins_modules_mac_sigSentPacket
scalar RSUExampleScenario.node[56].nic.mac1609_4 collisions:count 0
attr source org_car2x_veins_modules_mac_sigCollision
scalar RSUExampleScenario.node[56].nic.mac1609_4 channelBusy:timeavg 0.053623793103449
attr source org_car2x_veins_modules_mac_sigChannelBusy
scalar RSUExampleScenario.node[56].veinsmobility startTime 117.1
scalar RSUExampleScenario.node[56].veinsmobility totalTime 2.9
scalar RSUExampleScenario.node[56].veinsmobility stopTime 120
scalar RSUExampleScenario.node[56].veinsmobility minSpeed 6.7213511373776
scalar RSUExampleScenario.node[56].veinsmobility maxSpeed 6.8417726589761
scalar RSUExampleScenario.node[56].veinsmobility totalDistance 19.628565157263
scalar RSUExampleScenario.node[56].veinsmobility totalCO2Emission 4.8114665241739
scalar RSUExampleScenario.node[57].appl generatedWSMs 0
scalar RSUExampleScenario.node[57].appl receivedWSMs 0
scalar RSUExampleScenario.node[57].appl generatedBSMs 9
scalar RSUExampleScenario.node[57].appl receivedBSMs 290
scalar RSUExampleScenario.node[57].appl generatedWSAs 0
scalar RSUExampleScenario.node[57].appl receivedWSAs 0
scalar RSUExampleScenario.node[57].nic.phy80211p busyTime 0.052693333333333
scalar RSUExampleScenario.node[57].nic.mac1609_4 ReceivedUnicastPackets 0
scalar RSUExampleScenario.node[57].nic.mac1609_4 ReceivedBroadcasts 290
scalar RSUExampleScenario.node[57].nic.mac1609_4 SentPackets 9
scalar RSUExampleScenario.node[57].nic.mac1609_4 SentAcknowledgements 0
scalar RSUExampleScenario.node[57].nic.mac1609_4 RetriesExceeded 0
scalar RSUExampleScenario.node[57].nic.mac1609_4 SNIRLostPackets 166
scalar RSUExampleScenario.node[57].nic.mac1609_4 RXTXLostPackets 0
scalar RSUExampleScenario.node[57].nic.mac1609_4 TotalLostPackets 166
scalar RSUExampleScenario.node[57].nic.mac1609_4 DroppedPacketsInMac 0
scalar RSUExampleScenario.node[57].nic.mac1609_4 TooLittleTime 0
scalar RSUExampleScenario.node[57].nic.mac1609_4 TimesIntoBackoff 9
scalar RSUExampleScenario.node[57].nic.mac1609_4 SlotsBackoff 15
scalar RSUExampleScenario.node[57].nic.mac1609_4 NumInternalContention 0
scalar RSUExampleScenario.node[57].nic.mac1609_4 totalBusyTime 0.048369
scalar RSUExampleScenario.node[57].nic.mac1609_4 retriesExceeded:count 0
attr source org_car2x_veins_modules_mac_sigRetriesExceeded
scalar RSUExampleScenario.node[57].nic.mac1609_4 sentAcks:count 0
attr source org_car2x_veins_modules_mac_sigSentAck
scalar RSUExampleScenario.node[57].nic.mac1609_4 sentPackets:count 9
attr source org_car2x_veins_modules_mac_sigSentPacket
scalar RSUExampleScenario.node[57].nic.mac1609_4 collisions:count 0
attr source org_car2x_veins_modules_mac_sigCollision
scalar RSUExampleScenario.node[57].nic.mac1609_4 channelBusy:timeavg 0.053743333333333
attr source org_car2x_veins_modules_mac_sigChannelBusy
scalar RSUExampleScenario.node[57].veinsmobility startTime 119.1
scalar RSUExampleScenario.node[57].veinsmobility totalTime 0.9
scalar RSUExampleScenario.node[57].veinsmobility stopTime 120
scalar RSUExampleScenario.node[57].veinsmobility minSpeed 12.080378024116
scalar RSUExampleScenario.node[57].veinsmobility maxSpeed 12.18836015216
scalar RSUExampleScenario.node[57].veinsmobility totalDistance 10.92298507181
scalar RSUExampleScenario.node[57].veinsmobility totalCO2Emission 1.9906603209549

