version 2
run WithBeaconing-0-20251015-16:51:07-4366
attr configname WithBeaconing
attr datetime 20251015-16:51:07
attr experiment WithBeaconing
attr inifile omnetpp.ini
attr iterationvars ""
attr iterationvarsf ""
attr measurement ""
attr network RSUExampleScenario
attr processid 4366
attr repetition 0
attr replication #0
attr resultdir results
attr runnumber 0
attr seedset 210041226
param *.node[*].appl.sendBeacons true
param *.playgroundSizeX 1700m
param *.playgroundSizeY 1700m
param *.playgroundSizeZ 50m
param *.annotations.draw true
param *.manager.updateInterval 0.1s
param *.manager.host "\"localhost\""
param *.manager.port 9999
param *.manager.autoShutdown true
param *.manager.launchConfig "xmldoc(\"simulation_freeway.launchd.xml\")"
param *.connectionManager.sendDirect true
param *.connectionManager.maxInterfDist 2600m
param *.connectionManager.drawMaxIntfDist false
param *.**.nic.mac1609_4.useServiceChannel false
param *.**.nic.mac1609_4.txPower 20mW
param *.**.nic.mac1609_4.bitrate 6Mbps
param *.**.nic.phy80211p.minPowerLevel -110dBm
param *.**.nic.phy80211p.useNoiseFloor true
param *.**.nic.phy80211p.noiseFloor -98dBm
param *.**.nic.phy80211p.decider "xmldoc(\"config.xml\")"
param *.**.nic.phy80211p.analogueModels "xmldoc(\"config.xml\")"
param *.**.nic.phy80211p.usePropagationDelay true
param *.**.nic.phy80211p.antenna "xmldoc(\"antenna.xml\", \"/root/Antenna[@id='monopole']\")"
param *.node[*].nic.phy80211p.antennaOffsetY "0 m"
param *.node[*].nic.phy80211p.antennaOffsetZ "1.895 m"
param *.node[*].applType "\"TraCIDemo11p\""
param *.node[*].appl.headerLength "80 bit"
param *.node[*].appl.sendBeacons false
param *.node[*].appl.dataOnSch false
param *.node[*].appl.beaconInterval 0.1s
param **.node[*].appl.dataUserPriority 5
param **.node[*].appl.beaconUserPriority 7
param *.node[*].veinsmobility.x 0
param *.node[*].veinsmobility.y 0
param *.node[*].veinsmobility.z 0
param *.node[*].veinsmobility.setHostSpeed false

scalar RSUExampleScenario.node[0].appl generatedWSMs 0
scalar RSUExampleScenario.node[0].appl receivedWSMs 0
scalar RSUExampleScenario.node[0].appl generatedBSMs 897
scalar RSUExampleScenario.node[0].appl receivedBSMs 36174
scalar RSUExampleScenario.node[0].appl generatedWSAs 0
scalar RSUExampleScenario.node[0].appl receivedWSAs 0
scalar RSUExampleScenario.node[0].nic.phy80211p busyTime 0.051649855072471
scalar RSUExampleScenario.node[0].nic.mac1609_4 ReceivedUnicastPackets 0
scalar RSUExampleScenario.node[0].nic.mac1609_4 ReceivedBroadcasts 36174
scalar RSUExampleScenario.node[0].nic.mac1609_4 SentPackets 897
scalar RSUExampleScenario.node[0].nic.mac1609_4 SentAcknowledgements 0
scalar RSUExampleScenario.node[0].nic.mac1609_4 RetriesExceeded 0
scalar RSUExampleScenario.node[0].nic.mac1609_4 SNIRLostPackets 8374
scalar RSUExampleScenario.node[0].nic.mac1609_4 RXTXLostPackets 0
scalar RSUExampleScenario.node[0].nic.mac1609_4 TotalLostPackets 8374
scalar RSUExampleScenario.node[0].nic.mac1609_4 DroppedPacketsInMac 0
scalar RSUExampleScenario.node[0].nic.mac1609_4 TooLittleTime 0
scalar RSUExampleScenario.node[0].nic.mac1609_4 TimesIntoBackoff 1610
scalar RSUExampleScenario.node[0].nic.mac1609_4 SlotsBackoff 2433
scalar RSUExampleScenario.node[0].nic.mac1609_4 NumInternalContention 0
scalar RSUExampleScenario.node[0].nic.mac1609_4 totalBusyTime 4.727177
scalar RSUExampleScenario.node[0].nic.mac1609_4 retriesExceeded:count 0
attr source org_car2x_veins_modules_mac_sigRetriesExceeded
scalar RSUExampleScenario.node[0].nic.mac1609_4 sentAcks:count 0
attr source org_car2x_veins_modules_mac_sigSentAck
scalar RSUExampleScenario.node[0].nic.mac1609_4 sentPackets:count 897
attr source org_car2x_veins_modules_mac_sigSentPacket
scalar RSUExampleScenario.node[0].nic.mac1609_4 collisions:count 0
attr source org_car2x_veins_modules_mac_sigCollision
scalar RSUExampleScenario.node[0].nic.mac1609_4 channelBusy:timeavg 0.052699855072474
attr source org_car2x_veins_modules_mac_sigChannelBusy
scalar RSUExampleScenario.node[0].veinsmobility startTime 0.1
scalar RSUExampleScenario.node[0].veinsmobility totalTime 89.6
scalar RSUExampleScenario.node[0].veinsmobility stopTime 89.8
scalar RSUExampleScenario.node[0].veinsmobility minSpeed 11.038256718446
scalar RSUExampleScenario.node[0].veinsmobility maxSpeed 11.162755273679
scalar RSUExampleScenario.node[0].veinsmobility totalDistance 994.69682863776
scalar RSUExampleScenario.node[0].veinsmobility totalCO2Emission 181.39188625817
scalar RSUExampleScenario.node[1].appl generatedWSMs 0
scalar RSUExampleScenario.node[1].appl receivedWSMs 0
scalar RSUExampleScenario.node[1].appl generatedBSMs 955
scalar RSUExampleScenario.node[1].appl receivedBSMs 41001
scalar RSUExampleScenario.node[1].appl generatedWSAs 0
scalar RSUExampleScenario.node[1].appl receivedWSAs 0
scalar RSUExampleScenario.node[1].nic.phy80211p busyTime 0.054519958115209
scalar RSUExampleScenario.node[1].nic.mac1609_4 ReceivedUnicastPackets 0
scalar RSUExampleScenario.node[1].nic.mac1609_4 ReceivedBroadcasts 41001
scalar RSUExampleScenario.node[1].nic.mac1609_4 SentPackets 955
scalar RSUExampleScenario.node[1].nic.mac1609_4 SentAcknowledgements 0
scalar RSUExampleScenario.node[1].nic.mac1609_4 RetriesExceeded 0
scalar RSUExampleScenario.node[1].nic.mac1609_4 SNIRLostPackets 9063
scalar RSUExampleScenario.node[1].nic.mac1609_4 RXTXLostPackets 0
scalar RSUExampleScenario.node[1].nic.mac1609_4 TotalLostPackets 9063
scalar RSUExampleScenario.node[1].nic.mac1609_4 DroppedPacketsInMac 0
scalar RSUExampleScenario.node[1].nic.mac1609_4 TooLittleTime 0
scalar RSUExampleScenario.node[1].nic.mac1609_4 TimesIntoBackoff 955
scalar RSUExampleScenario.node[1].nic.mac1609_4 SlotsBackoff 1405
scalar RSUExampleScenario.node[1].nic.mac1609_4 NumInternalContention 0
scalar RSUExampleScenario.node[1].nic.mac1609_4 totalBusyTime 5.304539797186
scalar RSUExampleScenario.node[1].nic.mac1609_4 retriesExceeded:count 0
attr source org_car2x_veins_modules_mac_sigRetriesExceeded
scalar RSUExampleScenario.node[1].nic.mac1609_4 sentAcks:count 0
attr source org_car2x_veins_modules_mac_sigSentAck
scalar RSUExampleScenario.node[1].nic.mac1609_4 sentPackets:count 955
attr source org_car2x_veins_modules_mac_sigSentPacket
scalar RSUExampleScenario.node[1].nic.mac1609_4 collisions:count 0
attr source org_car2x_veins_modules_mac_sigCollision
scalar RSUExampleScenario.node[1].nic.mac1609_4 channelBusy:timeavg 0.05554491934229
attr source org_car2x_veins_modules_mac_sigChannelBusy
scalar RSUExampleScenario.node[1].veinsmobility startTime 0.1
scalar RSUExampleScenario.node[1].veinsmobility totalTime 95.4
scalar RSUExampleScenario.node[1].veinsmobility stopTime 95.6
scalar RSUExampleScenario.node[1].veinsmobility minSpeed 10.358830074449
scalar RSUExampleScenario.node[1].veinsmobility maxSpeed 10.483711489873
scalar RSUExampleScenario.node[1].veinsmobility totalDistance 994.13451234257
scalar RSUExampleScenario.node[1].veinsmobility totalCO2Emission 184.37763540575
scalar RSUExampleScenario.node[2].appl generatedWSMs 0
scalar RSUExampleScenario.node[2].appl receivedWSMs 0
scalar RSUExampleScenario.node[2].appl generatedBSMs 973
scalar RSUExampleScenario.node[2].appl receivedBSMs 43120
scalar RSUExampleScenario.node[2].appl generatedWSAs 0
scalar RSUExampleScenario.node[2].appl receivedWSAs 0
scalar RSUExampleScenario.node[2].nic.phy80211p busyTime 0.056436834532409
scalar RSUExampleScenario.node[2].nic.mac1609_4 ReceivedUnicastPackets 0
scalar RSUExampleScenario.node[2].nic.mac1609_4 ReceivedBroadcasts 43120
scalar RSUExampleScenario.node[2].nic.mac1609_4 SentPackets 973
scalar RSUExampleScenario.node[2].nic.mac1609_4 SentAcknowledgements 0
scalar RSUExampleScenario.node[2].nic.mac1609_4 RetriesExceeded 0
scalar RSUExampleScenario.node[2].nic.mac1609_4 SNIRLostPackets 9681
scalar RSUExampleScenario.node[2].nic.mac1609_4 RXTXLostPackets 0
scalar RSUExampleScenario.node[2].nic.mac1609_4 TotalLostPackets 9681
scalar RSUExampleScenario.node[2].nic.mac1609_4 DroppedPacketsInMac 0
scalar RSUExampleScenario.node[2].nic.mac1609_4 TooLittleTime 0
scalar RSUExampleScenario.node[2].nic.mac1609_4 TimesIntoBackoff 1327
scalar RSUExampleScenario.node[2].nic.mac1609_4 SlotsBackoff 1985
scalar RSUExampleScenario.node[2].nic.mac1609_4 NumInternalContention 0
scalar RSUExampleScenario.node[2].nic.mac1609_4 totalBusyTime 5.588061
scalar RSUExampleScenario.node[2].nic.mac1609_4 retriesExceeded:count 0
attr source org_car2x_veins_modules_mac_sigRetriesExceeded
scalar RSUExampleScenario.node[2].nic.mac1609_4 sentAcks:count 0
attr source org_car2x_veins_modules_mac_sigSentAck
scalar RSUExampleScenario.node[2].nic.mac1609_4 sentPackets:count 973
attr source org_car2x_veins_modules_mac_sigSentPacket
scalar RSUExampleScenario.node[2].nic.mac1609_4 collisions:count 0
attr source org_car2x_veins_modules_mac_sigCollision
scalar RSUExampleScenario.node[2].nic.mac1609_4 channelBusy:timeavg 0.057431253854096
attr source org_car2x_veins_modules_mac_sigChannelBusy
scalar RSUExampleScenario.node[2].veinsmobility startTime 1.1
scalar RSUExampleScenario.node[2].veinsmobility totalTime 97.2
scalar RSUExampleScenario.node[2].veinsmobility stopTime 98.4
scalar RSUExampleScenario.node[2].veinsmobility minSpeed 9.355907879756
scalar RSUExampleScenario.node[2].veinsmobility maxSpeed 10.299504951993
scalar RSUExampleScenario.node[2].veinsmobility totalDistance 993.84390006299
scalar RSUExampleScenario.node[2].veinsmobility totalCO2Emission 189.42797261792
scalar RSUExampleScenario.node[3].appl generatedWSMs 0
scalar RSUExampleScenario.node[3].appl receivedWSMs 0
scalar RSUExampleScenario.node[3].appl generatedBSMs 987
scalar RSUExampleScenario.node[3].appl receivedBSMs 44740
scalar RSUExampleScenario.node[3].appl generatedWSAs 0
scalar RSUExampleScenario.node[3].appl receivedWSAs 0
scalar RSUExampleScenario.node[3].nic.phy80211p busyTime 0.05761726443773
scalar RSUExampleScenario.node[3].nic.mac1609_4 ReceivedUnicastPackets 0
scalar RSUExampleScenario.node[3].nic.mac1609_4 ReceivedBroadcasts 44740
scalar RSUExampleScenario.node[3].nic.mac1609_4 SentPackets 987
scalar RSUExampleScenario.node[3].nic.mac1609_4 SentAcknowledgements 0
scalar RSUExampleScenario.node[3].nic.mac1609_4 RetriesExceeded 0
scalar RSUExampleScenario.node[3].nic.mac1609_4 SNIRLostPackets 9941
scalar RSUExampleScenario.node[3].nic.mac1609_4 RXTXLostPackets 0
scalar RSUExampleScenario.node[3].nic.mac1609_4 TotalLostPackets 9941
scalar RSUExampleScenario.node[3].nic.mac1609_4 DroppedPacketsInMac 0
scalar RSUExampleScenario.node[3].nic.mac1609_4 TooLittleTime 0
scalar RSUExampleScenario.node[3].nic.mac1609_4 TimesIntoBackoff 987
scalar RSUExampleScenario.node[3].nic.mac1609_4 SlotsBackoff 1479
scalar RSUExampleScenario.node[3].nic.mac1609_4 NumInternalContention 0
scalar RSUExampleScenario.node[3].nic.mac1609_4 totalBusyTime 5.782660572423
scalar RSUExampleScenario.node[3].nic.mac1609_4 retriesExceeded:count 0
attr source org_car2x_veins_modules_mac_sigRetriesExceeded
scalar RSUExampleScenario.node[3].nic.mac1609_4 sentAcks:count 0
attr source org_car2x_veins_modules_mac_sigSentAck
scalar RSUExampleScenario.node[3].nic.mac1609_4 sentPackets:count 987
attr source org_car2x_veins_modules_mac_sigSentPacket
scalar RSUExampleScenario.node[3].nic.mac1609_4 collisions:count 0
attr source org_car2x_veins_modules_mac_sigCollision
scalar RSUExampleScenario.node[3].nic.mac1609_4 channelBusy:timeavg 0.058588253013446
attr source org_car2x_veins_modules_mac_sigChannelBusy
scalar RSUExampleScenario.node[3].veinsmobility startTime 1.6
scalar RSUExampleScenario.node[3].veinsmobility totalTime 98.6
scalar RSUExampleScenario.node[3].veinsmobility stopTime 100.3
scalar RSUExampleScenario.node[3].veinsmobility minSpeed 9.857334217608
scalar RSUExampleScenario.node[3].veinsmobility maxSpeed 10.153023546754
scalar RSUExampleScenario.node[3].veinsmobility totalDistance 994.56707855383
scalar RSUExampleScenario.node[3].veinsmobility totalCO2Emission 190.53469145928
scalar RSUExampleScenario.node[6].appl generatedWSMs 0
scalar RSUExampleScenario.node[6].appl receivedWSMs 0
scalar RSUExampleScenario.node[6].appl generatedBSMs 1060
scalar RSUExampleScenario.node[6].appl receivedBSMs 52339
scalar RSUExampleScenario.node[6].appl generatedWSAs 0
scalar RSUExampleScenario.node[6].appl receivedWSAs 0
scalar RSUExampleScenario.node[6].nic.phy80211p busyTime 0.062529509434027
scalar RSUExampleScenario.node[6].nic.mac1609_4 ReceivedUnicastPackets 0
scalar RSUExampleScenario.node[6].nic.mac1609_4 ReceivedBroadcasts 52339
scalar RSUExampleScenario.node[6].nic.mac1609_4 SentPackets 1060
scalar RSUExampleScenario.node[6].nic.mac1609_4 SentAcknowledgements 0
scalar RSUExampleScenario.node[6].nic.mac1609_4 RetriesExceeded 0
scalar RSUExampleScenario.node[6].nic.mac1609_4 SNIRLostPackets 11393
scalar RSUExampleScenario.node[6].nic.mac1609_4 RXTXLostPackets 0
scalar RSUExampleScenario.node[6].nic.mac1609_4 TotalLostPackets 11393
scalar RSUExampleScenario.node[6].nic.mac1609_4 DroppedPacketsInMac 0
scalar RSUExampleScenario.node[6].nic.mac1609_4 TooLittleTime 0
scalar RSUExampleScenario.node[6].nic.mac1609_4 TimesIntoBackoff 1060
scalar RSUExampleScenario.node[6].nic.mac1609_4 SlotsBackoff 1588
scalar RSUExampleScenario.node[6].nic.mac1609_4 NumInternalContention 0
scalar RSUExampleScenario.node[6].nic.mac1609_4 totalBusyTime 6.722269437607
scalar RSUExampleScenario.node[6].nic.mac1609_4 retriesExceeded:count 0
attr source org_car2x_veins_modules_mac_sigRetriesExceeded
scalar RSUExampleScenario.node[6].nic.mac1609_4 sentAcks:count 0
attr source org_car2x_veins_modules_mac_sigSentAck
scalar RSUExampleScenario.node[6].nic.mac1609_4 sentPackets:count 1060
attr source org_car2x_veins_modules_mac_sigSentPacket
scalar RSUExampleScenario.node[6].nic.mac1609_4 collisions:count 0
attr source org_car2x_veins_modules_mac_sigCollision
scalar RSUExampleScenario.node[6].nic.mac1609_4 channelBusy:timeavg 0.063417636203906
attr source org_car2x_veins_modules_mac_sigChannelBusy
scalar RSUExampleScenario.node[6].veinsmobility startTime 3.1
scalar RSUExampleScenario.node[6].veinsmobility totalTime 105.9
scalar RSUExampleScenario.node[6].veinsmobility stopTime 109.1
scalar RSUExampleScenario.node[6].veinsmobility minSpeed 9.3290929360433
scalar RSUExampleScenario.node[6].veinsmobility maxSpeed 9.4537399610622
scalar RSUExampleScenario.node[6].veinsmobility totalDistance 994.47422848271
scalar RSUExampleScenario.node[6].veinsmobility totalCO2Emission 193.46678608801
scalar RSUExampleScenario.node[8].appl generatedWSMs 0
scalar RSUExampleScenario.node[8].appl receivedWSMs 0
scalar RSUExampleScenario.node[8].appl generatedBSMs 1062
scalar RSUExampleScenario.node[8].appl receivedBSMs 53767
scalar RSUExampleScenario.node[8].appl generatedWSAs 0
scalar RSUExampleScenario.node[8].appl receivedWSAs 0
scalar RSUExampleScenario.node[8].nic.phy80211p busyTime 0.064111789077283
scalar RSUExampleScenario.node[8].nic.mac1609_4 ReceivedUnicastPackets 0
scalar RSUExampleScenario.node[8].nic.mac1609_4 ReceivedBroadcasts 53767
scalar RSUExampleScenario.node[8].nic.mac1609_4 SentPackets 1062
scalar RSUExampleScenario.node[8].nic.mac1609_4 SentAcknowledgements 0
scalar RSUExampleScenario.node[8].nic.mac1609_4 RetriesExceeded 0
scalar RSUExampleScenario.node[8].nic.mac1609_4 SNIRLostPackets 11701
scalar RSUExampleScenario.node[8].nic.mac1609_4 RXTXLostPackets 0
scalar RSUExampleScenario.node[8].nic.mac1609_4 TotalLostPackets 11701
scalar RSUExampleScenario.node[8].nic.mac1609_4 DroppedPacketsInMac 0
scalar RSUExampleScenario.node[8].nic.mac1609_4 TooLittleTime 0
scalar RSUExampleScenario.node[8].nic.mac1609_4 TimesIntoBackoff 1062
scalar RSUExampleScenario.node[8].nic.mac1609_4 SlotsBackoff 1571
scalar RSUExampleScenario.node[8].nic.mac1609_4 NumInternalContention 0
scalar RSUExampleScenario.node[8].nic.mac1609_4 totalBusyTime 6.900735208231
scalar RSUExampleScenario.node[8].nic.mac1609_4 retriesExceeded:count 0
attr source org_car2x_veins_modules_mac_sigRetriesExceeded
scalar RSUExampleScenario.node[8].nic.mac1609_4 sentAcks:count 0
attr source org_car2x_veins_modules_mac_sigSentAck
scalar RSUExampleScenario.node[8].nic.mac1609_4 sentPackets:count 1062
attr source org_car2x_veins_modules_mac_sigSentPacket
scalar RSUExampleScenario.node[8].nic.mac1609_4 collisions:count 0
attr source org_car2x_veins_modules_mac_sigCollision
scalar RSUExampleScenario.node[8].nic.mac1609_4 channelBusy:timeavg 0.064978674277199
attr source org_car2x_veins_modules_mac_sigChannelBusy
scalar RSUExampleScenario.node[8].veinsmobility startTime 4.6
scalar RSUExampleScenario.node[8].veinsmobility totalTime 106.1
scalar RSUExampleScenario.node[8].veinsmobility stopTime 110.8
scalar RSUExampleScenario.node[8].veinsmobility minSpeed 8.557271999422
scalar RSUExampleScenario.node[8].veinsmobility maxSpeed 10.530294381821
scalar RSUExampleScenario.node[8].veinsmobility totalDistance 994.72413915034
scalar RSUExampleScenario.node[8].veinsmobility totalCO2Emission 210.38843701089
scalar RSUExampleScenario.node[10].appl generatedWSMs 0
scalar RSUExampleScenario.node[10].appl receivedWSMs 0
scalar RSUExampleScenario.node[10].appl generatedBSMs 1067
scalar RSUExampleScenario.node[10].appl receivedBSMs 55397
scalar RSUExampleScenario.node[10].appl generatedWSAs 0
scalar RSUExampleScenario.node[10].appl receivedWSAs 0
scalar RSUExampleScenario.node[10].nic.phy80211p busyTime 0.06580071227749
scalar RSUExampleScenario.node[10].nic.mac1609_4 ReceivedUnicastPackets 0
scalar RSUExampleScenario.node[10].nic.mac1609_4 ReceivedBroadcasts 55397
scalar RSUExampleScenario.node[10].nic.mac1609_4 SentPackets 1067
scalar RSUExampleScenario.node[10].nic.mac1609_4 SentAcknowledgements 0
scalar RSUExampleScenario.node[10].nic.mac1609_4 RetriesExceeded 0
scalar RSUExampleScenario.node[10].nic.mac1609_4 SNIRLostPackets 12112
scalar RSUExampleScenario.node[10].nic.mac1609_4 RXTXLostPackets 0
scalar RSUExampleScenario.node[10].nic.mac1609_4 TotalLostPackets 12112
scalar RSUExampleScenario.node[10].nic.mac1609_4 DroppedPacketsInMac 0
scalar RSUExampleScenario.node[10].nic.mac1609_4 TooLittleTime 0
scalar RSUExampleScenario.node[10].nic.mac1609_4 TimesIntoBackoff 1498
scalar RSUExampleScenario.node[10].nic.mac1609_4 SlotsBackoff 2309
scalar RSUExampleScenario.node[10].nic.mac1609_4 NumInternalContention 0
scalar RSUExampleScenario.node[10].nic.mac1609_4 totalBusyTime 7.11123536385
scalar RSUExampleScenario.node[10].nic.mac1609_4 retriesExceeded:count 0
attr source org_car2x_veins_modules_mac_sigRetriesExceeded
scalar RSUExampleScenario.node[10].nic.mac1609_4 sentAcks:count 0
attr source org_car2x_veins_modules_mac_sigSentAck
scalar RSUExampleScenario.node[10].nic.mac1609_4 sentPackets:count 1067
attr source org_car2x_veins_modules_mac_sigSentPacket
scalar RSUExampleScenario.node[10].nic.mac1609_4 collisions:count 0
attr source org_car2x_veins_modules_mac_sigCollision
scalar RSUExampleScenario.node[10].nic.mac1609_4 channelBusy:timeavg 0.066647004347312
attr source org_car2x_veins_modules_mac_sigChannelBusy
scalar RSUExampleScenario.node[10].veinsmobility startTime 6.1
scalar RSUExampleScenario.node[10].veinsmobility totalTime 106.6
scalar RSUExampleScenario.node[10].veinsmobility stopTime 112.8
scalar RSUExampleScenario.node[10].veinsmobility minSpeed 7.9568002087993
scalar RSUExampleScenario.node[10].veinsmobility maxSpeed 9.4507856144386
scalar RSUExampleScenario.node[10].veinsmobility totalDistance 994.60431530426
scalar RSUExampleScenario.node[10].veinsmobility totalCO2Emission 202.86534919764
scalar RSUExampleScenario.node[12].appl generatedWSMs 0
scalar RSUExampleScenario.node[12].appl receivedWSMs 0
scalar RSUExampleScenario.node[12].appl generatedBSMs 1069
scalar RSUExampleScenario.node[12].appl receivedBSMs 56756
scalar RSUExampleScenario.node[12].appl generatedWSAs 0
scalar RSUExampleScenario.node[12].appl receivedWSAs 0
scalar RSUExampleScenario.node[12].nic.phy80211p busyTime 0.067331487371457
scalar RSUExampleScenario.node[12].nic.mac1609_4 ReceivedUnicastPackets 0
scalar RSUExampleScenario.node[12].nic.mac1609_4 ReceivedBroadcasts 56756
scalar RSUExampleScenario.node[12].nic.mac1609_4 SentPackets 1069
scalar RSUExampleScenario.node[12].nic.mac1609_4 SentAcknowledgements 0
scalar RSUExampleScenario.node[12].nic.mac1609_4 RetriesExceeded 0
scalar RSUExampleScenario.node[12].nic.mac1609_4 SNIRLostPackets 12453
scalar RSUExampleScenario.node[12].nic.mac1609_4 RXTXLostPackets 0
scalar RSUExampleScenario.node[12].nic.mac1609_4 TotalLostPackets 12453
scalar RSUExampleScenario.node[12].nic.mac1609_4 DroppedPacketsInMac 0
scalar RSUExampleScenario.node[12].nic.mac1609_4 TooLittleTime 0
scalar RSUExampleScenario.node[12].nic.mac1609_4 TimesIntoBackoff 1069
scalar RSUExampleScenario.node[12].nic.mac1609_4 SlotsBackoff 1571
scalar RSUExampleScenario.node[12].nic.mac1609_4 NumInternalContention 0
scalar RSUExampleScenario.node[12].nic.mac1609_4 totalBusyTime 7.286061783682
scalar RSUExampleScenario.node[12].nic.mac1609_4 retriesExceeded:count 0
attr source org_car2x_veins_modules_mac_sigRetriesExceeded
scalar RSUExampleScenario.node[12].nic.mac1609_4 sentAcks:count 0
attr source org_car2x_veins_modules_mac_sigSentAck
scalar RSUExampleScenario.node[12].nic.mac1609_4 sentPackets:count 1069
attr source org_car2x_veins_modules_mac_sigSentPacket
scalar RSUExampleScenario.node[12].nic.mac1609_4 collisions:count 0
attr source org_car2x_veins_modules_mac_sigCollision
scalar RSUExampleScenario.node[12].nic.mac1609_4 channelBusy:timeavg 0.068157734178585
attr source org_car2x_veins_modules_mac_sigChannelBusy
scalar RSUExampleScenario.node[12].veinsmobility startTime 7.6
scalar RSUExampleScenario.node[12].veinsmobility totalTime 106.8
scalar RSUExampleScenario.node[12].veinsmobility stopTime 114.5
scalar RSUExampleScenario.node[12].veinsmobility minSpeed 7.2622500695703
scalar RSUExampleScenario.node[12].veinsmobility maxSpeed 9.8625230343074
scalar RSUExampleScenario.node[12].veinsmobility totalDistance 994.04331180443
scalar RSUExampleScenario.node[12].veinsmobility totalCO2Emission 210.86444814174
scalar RSUExampleScenario.node[4].appl generatedWSMs 0
scalar RSUExampleScenario.node[4].appl receivedWSMs 0
scalar RSUExampleScenario.node[4].appl generatedBSMs 1136
scalar RSUExampleScenario.node[4].appl receivedBSMs 58341
scalar RSUExampleScenario.node[4].appl generatedWSAs 0
scalar RSUExampleScenario.node[4].appl receivedWSAs 0
scalar RSUExampleScenario.node[4].nic.phy80211p busyTime 0.064936830985997
scalar RSUExampleScenario.node[4].nic.mac1609_4 ReceivedUnicastPackets 0
scalar RSUExampleScenario.node[4].nic.mac1609_4 ReceivedBroadcasts 58341
scalar RSUExampleScenario.node[4].nic.mac1609_4 SentPackets 1136
scalar RSUExampleScenario.node[4].nic.mac1609_4 SentAcknowledgements 0
scalar RSUExampleScenario.node[4].nic.mac1609_4 RetriesExceeded 0
scalar RSUExampleScenario.node[4].nic.mac1609_4 SNIRLostPackets 12590
scalar RSUExampleScenario.node[4].nic.mac1609_4 RXTXLostPackets 0
scalar RSUExampleScenario.node[4].nic.mac1609_4 TotalLostPackets 12590
scalar RSUExampleScenario.node[4].nic.mac1609_4 DroppedPacketsInMac 0
scalar RSUExampleScenario.node[4].nic.mac1609_4 TooLittleTime 0
scalar RSUExampleScenario.node[4].nic.mac1609_4 TimesIntoBackoff 1136
scalar RSUExampleScenario.node[4].nic.mac1609_4 SlotsBackoff 1733
scalar RSUExampleScenario.node[4].nic.mac1609_4 NumInternalContention 0
scalar RSUExampleScenario.node[4].nic.mac1609_4 totalBusyTime 7.470208
scalar RSUExampleScenario.node[4].nic.mac1609_4 retriesExceeded:count 0
attr source org_car2x_veins_modules_mac_sigRetriesExceeded
scalar RSUExampleScenario.node[4].nic.mac1609_4 sentAcks:count 0
attr source org_car2x_veins_modules_mac_sigSentAck
scalar RSUExampleScenario.node[4].nic.mac1609_4 sentPackets:count 1136
attr source org_car2x_veins_modules_mac_sigSentPacket
scalar RSUExampleScenario.node[4].nic.mac1609_4 collisions:count 0
attr source org_car2x_veins_modules_mac_sigCollision
scalar RSUExampleScenario.node[4].nic.mac1609_4 channelBusy:timeavg 0.065758873239519
attr source org_car2x_veins_modules_mac_sigChannelBusy
scalar RSUExampleScenario.node[4].veinsmobility startTime 2.1
scalar RSUExampleScenario.node[4].veinsmobility totalTime 113.5
scalar RSUExampleScenario.node[4].veinsmobility stopTime 115.7
scalar RSUExampleScenario.node[4].veinsmobility minSpeed 7.5431050173203
scalar RSUExampleScenario.node[4].veinsmobility maxSpeed 8.8310847259641
scalar RSUExampleScenario.node[4].veinsmobility totalDistance 994.37118888283
scalar RSUExampleScenario.node[4].veinsmobility totalCO2Emission 203.22818331415
scalar RSUExampleScenario.node[14].appl generatedWSMs 0
scalar RSUExampleScenario.node[14].appl receivedWSMs 0
scalar RSUExampleScenario.node[14].appl generatedBSMs 1071
scalar RSUExampleScenario.node[14].appl receivedBSMs 58183
scalar RSUExampleScenario.node[14].appl generatedWSAs 0
scalar RSUExampleScenario.node[14].appl receivedWSAs 0
scalar RSUExampleScenario.node[14].nic.phy80211p busyTime 0.068833239962738
scalar RSUExampleScenario.node[14].nic.mac1609_4 ReceivedUnicastPackets 0
scalar RSUExampleScenario.node[14].nic.mac1609_4 ReceivedBroadcasts 58183
scalar RSUExampleScenario.node[14].nic.mac1609_4 SentPackets 1071
scalar RSUExampleScenario.node[14].nic.mac1609_4 SentAcknowledgements 0
scalar RSUExampleScenario.node[14].nic.mac1609_4 RetriesExceeded 0
scalar RSUExampleScenario.node[14].nic.mac1609_4 SNIRLostPackets 12702
scalar RSUExampleScenario.node[14].nic.mac1609_4 RXTXLostPackets 0
scalar RSUExampleScenario.node[14].nic.mac1609_4 TotalLostPackets 12702
scalar RSUExampleScenario.node[14].nic.mac1609_4 DroppedPacketsInMac 0
scalar RSUExampleScenario.node[14].nic.mac1609_4 TooLittleTime 0
scalar RSUExampleScenario.node[14].nic.mac1609_4 TimesIntoBackoff 1071
scalar RSUExampleScenario.node[14].nic.mac1609_4 SlotsBackoff 1647
scalar RSUExampleScenario.node[14].nic.mac1609_4 NumInternalContention 0
scalar RSUExampleScenario.node[14].nic.mac1609_4 totalBusyTime 7.457767670463
scalar RSUExampleScenario.node[14].nic.mac1609_4 retriesExceeded:count 0
attr source org_car2x_veins_modules_mac_sigRetriesExceeded
scalar RSUExampleScenario.node[14].nic.mac1609_4 sentAcks:count 0
attr source org_car2x_veins_modules_mac_sigSentAck
scalar RSUExampleScenario.node[14].nic.mac1609_4 sentPackets:count 1071
attr source org_car2x_veins_modules_mac_sigSentPacket
scalar RSUExampleScenario.node[14].nic.mac1609_4 collisions:count 0
attr source org_car2x_veins_modules_mac_sigCollision
scalar RSUExampleScenario.node[14].nic.mac1609_4 channelBusy:timeavg 0.069633685065101
attr source org_car2x_veins_modules_mac_sigChannelBusy
scalar RSUExampleScenario.node[14].veinsmobility startTime 9.1
scalar RSUExampleScenario.node[14].veinsmobility totalTime 107
scalar RSUExampleScenario.node[14].veinsmobility stopTime 116.2
scalar RSUExampleScenario.node[14].veinsmobility minSpeed 6.6360551020574
scalar RSUExampleScenario.node[14].veinsmobility maxSpeed 10.568097341924
scalar RSUExampleScenario.node[14].veinsmobility totalDistance 994.42919777656
scalar RSUExampleScenario.node[14].veinsmobility totalCO2Emission 219.23853694456
scalar RSUExampleScenario.node[5].appl generatedWSMs 0
scalar RSUExampleScenario.node[5].appl receivedWSMs 0
scalar RSUExampleScenario.node[5].appl generatedBSMs 1142
scalar RSUExampleScenario.node[5].appl receivedBSMs 59783
scalar RSUExampleScenario.node[5].appl generatedWSAs 0
scalar RSUExampleScenario.node[5].appl receivedWSAs 0
scalar RSUExampleScenario.node[5].nic.phy80211p busyTime 0.066147460595533
scalar RSUExampleScenario.node[5].nic.mac1609_4 ReceivedUnicastPackets 0
scalar RSUExampleScenario.node[5].nic.mac1609_4 ReceivedBroadcasts 59783
scalar RSUExampleScenario.node[5].nic.mac1609_4 SentPackets 1142
scalar RSUExampleScenario.node[5].nic.mac1609_4 SentAcknowledgements 0
scalar RSUExampleScenario.node[5].nic.mac1609_4 RetriesExceeded 0
scalar RSUExampleScenario.node[5].nic.mac1609_4 SNIRLostPackets 12852
scalar RSUExampleScenario.node[5].nic.mac1609_4 RXTXLostPackets 0
scalar RSUExampleScenario.node[5].nic.mac1609_4 TotalLostPackets 12852
scalar RSUExampleScenario.node[5].nic.mac1609_4 DroppedPacketsInMac 0
scalar RSUExampleScenario.node[5].nic.mac1609_4 TooLittleTime 0
scalar RSUExampleScenario.node[5].nic.mac1609_4 TimesIntoBackoff 1142
scalar RSUExampleScenario.node[5].nic.mac1609_4 SlotsBackoff 1771
scalar RSUExampleScenario.node[5].nic.mac1609_4 NumInternalContention 0
scalar RSUExampleScenario.node[5].nic.mac1609_4 totalBusyTime 7.645142
scalar RSUExampleScenario.node[5].nic.mac1609_4 retriesExceeded:count 0
attr source org_car2x_veins_modules_mac_sigRetriesExceeded
scalar RSUExampleScenario.node[5].nic.mac1609_4 sentAcks:count 0
attr source org_car2x_veins_modules_mac_sigSentAck
scalar RSUExampleScenario.node[5].nic.mac1609_4 sentPackets:count 1142
attr source org_car2x_veins_modules_mac_sigSentPacket
scalar RSUExampleScenario.node[5].nic.mac1609_4 collisions:count 0
attr source org_car2x_veins_modules_mac_sigCollision
scalar RSUExampleScenario.node[5].nic.mac1609_4 channelBusy:timeavg 0.066945201401137
attr source org_car2x_veins_modules_mac_sigChannelBusy
scalar RSUExampleScenario.node[5].veinsmobility startTime 3.1
scalar RSUExampleScenario.node[5].veinsmobility totalTime 114.1
scalar RSUExampleScenario.node[5].veinsmobility stopTime 117.3
scalar RSUExampleScenario.node[5].veinsmobility minSpeed 5.9253764463387
scalar RSUExampleScenario.node[5].veinsmobility maxSpeed 11.497318555196
scalar RSUExampleScenario.node[5].veinsmobility totalDistance 994.15785994068
scalar RSUExampleScenario.node[5].veinsmobility totalCO2Emission 221.3141387809
scalar RSUExampleScenario.node[15].appl generatedWSMs 0
scalar RSUExampleScenario.node[15].appl receivedWSMs 0
scalar RSUExampleScenario.node[15].appl generatedBSMs 1072
scalar RSUExampleScenario.node[15].appl receivedBSMs 59589
scalar RSUExampleScenario.node[15].appl generatedWSAs 0
scalar RSUExampleScenario.node[15].appl receivedWSAs 0
scalar RSUExampleScenario.node[15].nic.phy80211p busyTime 0.070256268656807
scalar RSUExampleScenario.node[15].nic.mac1609_4 ReceivedUnicastPackets 0
scalar RSUExampleScenario.node[15].nic.mac1609_4 ReceivedBroadcasts 59589
scalar RSUExampleScenario.node[15].nic.mac1609_4 SentPackets 1072
scalar RSUExampleScenario.node[15].nic.mac1609_4 SentAcknowledgements 0
scalar RSUExampleScenario.node[15].nic.mac1609_4 RetriesExceeded 0
scalar RSUExampleScenario.node[15].nic.mac1609_4 SNIRLostPackets 12829
scalar RSUExampleScenario.node[15].nic.mac1609_4 RXTXLostPackets 0
scalar RSUExampleScenario.node[15].nic.mac1609_4 TotalLostPackets 12829
scalar RSUExampleScenario.node[15].nic.mac1609_4 DroppedPacketsInMac 0
scalar RSUExampleScenario.node[15].nic.mac1609_4 TooLittleTime 0
scalar RSUExampleScenario.node[15].nic.mac1609_4 TimesIntoBackoff 1072
scalar RSUExampleScenario.node[15].nic.mac1609_4 SlotsBackoff 1541
scalar RSUExampleScenario.node[15].nic.mac1609_4 NumInternalContention 0
scalar RSUExampleScenario.node[15].nic.mac1609_4 totalBusyTime 7.61480891821
scalar RSUExampleScenario.node[15].nic.mac1609_4 retriesExceeded:count 0
attr source org_car2x_veins_modules_mac_sigRetriesExceeded
scalar RSUExampleScenario.node[15].nic.mac1609_4 sentAcks:count 0
attr source org_car2x_veins_modules_mac_sigSentAck
scalar RSUExampleScenario.node[15].nic.mac1609_4 sentPackets:count 1072
attr source org_car2x_veins_modules_mac_sigSentPacket
scalar RSUExampleScenario.node[15].nic.mac1609_4 collisions:count 0
attr source org_car2x_veins_modules_mac_sigCollision
scalar RSUExampleScenario.node[15].nic.mac1609_4 channelBusy:timeavg 0.071033665281901
attr source org_car2x_veins_modules_mac_sigChannelBusy
scalar RSUExampleScenario.node[15].veinsmobility startTime 10.6
scalar RSUExampleScenario.node[15].veinsmobility totalTime 107.1
scalar RSUExampleScenario.node[15].veinsmobility stopTime 117.8
scalar RSUExampleScenario.node[15].veinsmobility minSpeed 6.0584164690661
scalar RSUExampleScenario.node[15].veinsmobility maxSpeed 11.073989627612
scalar RSUExampleScenario.node[15].veinsmobility totalDistance 994.28511302606
scalar RSUExampleScenario.node[15].veinsmobility totalCO2Emission 223.53234031676
scalar RSUExampleScenario.manager roiArea 0
scalar RSUExampleScenario.node[7].appl generatedWSMs 0
scalar RSUExampleScenario.node[7].appl receivedWSMs 0
scalar RSUExampleScenario.node[7].appl generatedBSMs 1157
scalar RSUExampleScenario.node[7].appl receivedBSMs 65707
scalar RSUExampleScenario.node[7].appl generatedWSAs 0
scalar RSUExampleScenario.node[7].appl receivedWSAs 0
scalar RSUExampleScenario.node[7].nic.phy80211p busyTime 0.067869662921441
scalar RSUExampleScenario.node[7].nic.mac1609_4 ReceivedUnicastPackets 0
scalar RSUExampleScenario.node[7].nic.mac1609_4 ReceivedBroadcasts 65707
scalar RSUExampleScenario.node[7].nic.mac1609_4 SentPackets 1157
scalar RSUExampleScenario.node[7].nic.mac1609_4 SentAcknowledgements 0
scalar RSUExampleScenario.node[7].nic.mac1609_4 RetriesExceeded 0
scalar RSUExampleScenario.node[7].nic.mac1609_4 SNIRLostPackets 9798
scalar RSUExampleScenario.node[7].nic.mac1609_4 RXTXLostPackets 0
scalar RSUExampleScenario.node[7].nic.mac1609_4 TotalLostPackets 9798
scalar RSUExampleScenario.node[7].nic.mac1609_4 DroppedPacketsInMac 0
scalar RSUExampleScenario.node[7].nic.mac1609_4 TooLittleTime 0
scalar RSUExampleScenario.node[7].nic.mac1609_4 TimesIntoBackoff 1157
scalar RSUExampleScenario.node[7].nic.mac1609_4 SlotsBackoff 1688
scalar RSUExampleScenario.node[7].nic.mac1609_4 NumInternalContention 0
scalar RSUExampleScenario.node[7].nic.mac1609_4 totalBusyTime 7.941557
scalar RSUExampleScenario.node[7].nic.mac1609_4 retriesExceeded:count 0
attr source org_car2x_veins_modules_mac_sigRetriesExceeded
scalar RSUExampleScenario.node[7].nic.mac1609_4 sentAcks:count 0
attr source org_car2x_veins_modules_mac_sigSentAck
scalar RSUExampleScenario.node[7].nic.mac1609_4 sentPackets:count 1157
attr source org_car2x_veins_modules_mac_sigSentPacket
scalar RSUExampleScenario.node[7].nic.mac1609_4 collisions:count 0
attr source org_car2x_veins_modules_mac_sigCollision
scalar RSUExampleScenario.node[7].nic.mac1609_4 channelBusy:timeavg 0.068639213483239
attr source org_car2x_veins_modules_mac_sigChannelBusy
scalar RSUExampleScenario.node[7].veinsmobility startTime 4.3
scalar RSUExampleScenario.node[7].veinsmobility totalTime 115.7
scalar RSUExampleScenario.node[7].veinsmobility stopTime 120
scalar RSUExampleScenario.node[7].veinsmobility minSpeed 4.7281691016653
scalar RSUExampleScenario.node[7].veinsmobility maxSpeed 7.6441776290029
scalar RSUExampleScenario.node[7].veinsmobility totalDistance 872.7188635391
scalar RSUExampleScenario.node[7].veinsmobility totalCO2Emission 196.1039806917
scalar RSUExampleScenario.node[9].appl generatedWSMs 0
scalar RSUExampleScenario.node[9].appl receivedWSMs 0
scalar RSUExampleScenario.node[9].appl generatedBSMs 1143
scalar RSUExampleScenario.node[9].appl receivedBSMs 65879
scalar RSUExampleScenario.node[9].appl generatedWSAs 0
scalar RSUExampleScenario.node[9].appl receivedWSAs 0
scalar RSUExampleScenario.node[9].nic.phy80211p busyTime 0.068601784776997
scalar RSUExampleScenario.node[9].nic.mac1609_4 ReceivedUnicastPackets 0
scalar RSUExampleScenario.node[9].nic.mac1609_4 ReceivedBroadcasts 65879
scalar RSUExampleScenario.node[9].nic.mac1609_4 SentPackets 1143
scalar RSUExampleScenario.node[9].nic.mac1609_4 SentAcknowledgements 0
scalar RSUExampleScenario.node[9].nic.mac1609_4 RetriesExceeded 0
scalar RSUExampleScenario.node[9].nic.mac1609_4 SNIRLostPackets 9517
scalar RSUExampleScenario.node[9].nic.mac1609_4 RXTXLostPackets 0
scalar RSUExampleScenario.node[9].nic.mac1609_4 TotalLostPackets 9517
scalar RSUExampleScenario.node[9].nic.mac1609_4 DroppedPacketsInMac 0
scalar RSUExampleScenario.node[9].nic.mac1609_4 TooLittleTime 0
scalar RSUExampleScenario.node[9].nic.mac1609_4 TimesIntoBackoff 1143
scalar RSUExampleScenario.node[9].nic.mac1609_4 SlotsBackoff 1745
scalar RSUExampleScenario.node[9].nic.mac1609_4 NumInternalContention 0
scalar RSUExampleScenario.node[9].nic.mac1609_4 totalBusyTime 7.928751
scalar RSUExampleScenario.node[9].nic.mac1609_4 retriesExceeded:count 0
attr source org_car2x_veins_modules_mac_sigRetriesExceeded
scalar RSUExampleScenario.node[9].nic.mac1609_4 sentAcks:count 0
attr source org_car2x_veins_modules_mac_sigSentAck
scalar RSUExampleScenario.node[9].nic.mac1609_4 sentPackets:count 1143
attr source org_car2x_veins_modules_mac_sigSentPacket
scalar RSUExampleScenario.node[9].nic.mac1609_4 collisions:count 0
attr source org_car2x_veins_modules_mac_sigCollision
scalar RSUExampleScenario.node[9].nic.mac1609_4 channelBusy:timeavg 0.069367900262561
attr source org_car2x_veins_modules_mac_sigChannelBusy
scalar RSUExampleScenario.node[9].veinsmobility startTime 5.7
scalar RSUExampleScenario.node[9].veinsmobility totalTime 114.3
scalar RSUExampleScenario.node[9].veinsmobility stopTime 120
scalar RSUExampleScenario.node[9].veinsmobility minSpeed 3.7087927969334
scalar RSUExampleScenario.node[9].veinsmobility maxSpeed 7.6873590080655
scalar RSUExampleScenario.node[9].veinsmobility totalDistance 857.4437673023
scalar RSUExampleScenario.node[9].veinsmobility totalCO2Emission 205.58145750553
scalar RSUExampleScenario.node[11].appl generatedWSMs 0
scalar RSUExampleScenario.node[11].appl receivedWSMs 0
scalar RSUExampleScenario.node[11].appl generatedBSMs 1127
scalar RSUExampleScenario.node[11].appl receivedBSMs 65995
scalar RSUExampleScenario.node[11].appl generatedWSAs 0
scalar RSUExampleScenario.node[11].appl receivedWSAs 0
scalar RSUExampleScenario.node[11].nic.phy80211p busyTime 0.069431765749873
scalar RSUExampleScenario.node[11].nic.mac1609_4 ReceivedUnicastPackets 0
scalar RSUExampleScenario.node[11].nic.mac1609_4 ReceivedBroadcasts 65995
scalar RSUExampleScenario.node[11].nic.mac1609_4 SentPackets 1127
scalar RSUExampleScenario.node[11].nic.mac1609_4 SentAcknowledgements 0
scalar RSUExampleScenario.node[11].nic.mac1609_4 RetriesExceeded 0
scalar RSUExampleScenario.node[11].nic.mac1609_4 SNIRLostPackets 9245
scalar RSUExampleScenario.node[11].nic.mac1609_4 RXTXLostPackets 0
scalar RSUExampleScenario.node[11].nic.mac1609_4 TotalLostPackets 9245
scalar RSUExampleScenario.node[11].nic.mac1609_4 DroppedPacketsInMac 0
scalar RSUExampleScenario.node[11].nic.mac1609_4 TooLittleTime 0
scalar RSUExampleScenario.node[11].nic.mac1609_4 TimesIntoBackoff 1127
scalar RSUExampleScenario.node[11].nic.mac1609_4 SlotsBackoff 1709
scalar RSUExampleScenario.node[11].nic.mac1609_4 NumInternalContention 0
scalar RSUExampleScenario.node[11].nic.mac1609_4 totalBusyTime 7.910847
scalar RSUExampleScenario.node[11].nic.mac1609_4 retriesExceeded:count 0
attr source org_car2x_veins_modules_mac_sigRetriesExceeded
scalar RSUExampleScenario.node[11].nic.mac1609_4 sentAcks:count 0
attr source org_car2x_veins_modules_mac_sigSentAck
scalar RSUExampleScenario.node[11].nic.mac1609_4 sentPackets:count 1127
attr source org_car2x_veins_modules_mac_sigSentPacket
scalar RSUExampleScenario.node[11].nic.mac1609_4 collisions:count 0
attr source org_car2x_veins_modules_mac_sigCollision
scalar RSUExampleScenario.node[11].nic.mac1609_4 channelBusy:timeavg 0.070193850931772
attr source org_car2x_veins_modules_mac_sigChannelBusy
scalar RSUExampleScenario.node[11].veinsmobility startTime 7.3
scalar RSUExampleScenario.node[11].veinsmobility totalTime 112.7
scalar RSUExampleScenario.node[11].veinsmobility stopTime 120
scalar RSUExampleScenario.node[11].veinsmobility minSpeed 3.4068282793789
scalar RSUExampleScenario.node[11].veinsmobility maxSpeed 7.714121391498
scalar RSUExampleScenario.node[11].veinsmobility totalDistance 842.09331628904
scalar RSUExampleScenario.node[11].veinsmobility totalCO2Emission 206.23580534693
scalar RSUExampleScenario.node[13].appl generatedWSMs 0
scalar RSUExampleScenario.node[13].appl receivedWSMs 0
scalar RSUExampleScenario.node[13].appl generatedBSMs 1110
scalar RSUExampleScenario.node[13].appl receivedBSMs 66060
scalar RSUExampleScenario.node[13].appl generatedWSAs 0
scalar RSUExampleScenario.node[13].appl receivedWSAs 0
scalar RSUExampleScenario.node[13].nic.phy80211p busyTime 0.070306810810906
scalar RSUExampleScenario.node[13].nic.mac1609_4 ReceivedUnicastPackets 0
scalar RSUExampleScenario.node[13].nic.mac1609_4 ReceivedBroadcasts 66060
scalar RSUExampleScenario.node[13].nic.mac1609_4 SentPackets 1110
scalar RSUExampleScenario.node[13].nic.mac1609_4 SentAcknowledgements 0
scalar RSUExampleScenario.node[13].nic.mac1609_4 RetriesExceeded 0
scalar RSUExampleScenario.node[13].nic.mac1609_4 SNIRLostPackets 8979
scalar RSUExampleScenario.node[13].nic.mac1609_4 RXTXLostPackets 0
scalar RSUExampleScenario.node[13].nic.mac1609_4 TotalLostPackets 8979
scalar RSUExampleScenario.node[13].nic.mac1609_4 DroppedPacketsInMac 0
scalar RSUExampleScenario.node[13].nic.mac1609_4 TooLittleTime 0
scalar RSUExampleScenario.node[13].nic.mac1609_4 TimesIntoBackoff 1110
scalar RSUExampleScenario.node[13].nic.mac1609_4 SlotsBackoff 1739
scalar RSUExampleScenario.node[13].nic.mac1609_4 NumInternalContention 0
scalar RSUExampleScenario.node[13].nic.mac1609_4 totalBusyTime 7.888158
scalar RSUExampleScenario.node[13].nic.mac1609_4 retriesExceeded:count 0
attr source org_car2x_veins_modules_mac_sigRetriesExceeded
scalar RSUExampleScenario.node[13].nic.mac1609_4 sentAcks:count 0
attr source org_car2x_veins_modules_mac_sigSentAck
scalar RSUExampleScenario.node[13].nic.mac1609_4 sentPackets:count 1110
attr source org_car2x_veins_modules_mac_sigSentPacket
scalar RSUExampleScenario.node[13].nic.mac1609_4 collisions:count 0
attr source org_car2x_veins_modules_mac_sigCollision
scalar RSUExampleScenario.node[13].nic.mac1609_4 channelBusy:timeavg 0.071064486486582
attr source org_car2x_veins_modules_mac_sigChannelBusy
scalar RSUExampleScenario.node[13].veinsmobility startTime 9
scalar RSUExampleScenario.node[13].veinsmobility totalTime 111
scalar RSUExampleScenario.node[13].veinsmobility stopTime 120
scalar RSUExampleScenario.node[13].veinsmobility minSpeed 3.1393583547875
scalar RSUExampleScenario.node[13].veinsmobility maxSpeed 7.7305428813027
scalar RSUExampleScenario.node[13].veinsmobility totalDistance 826.81072764807
scalar RSUExampleScenario.node[13].veinsmobility totalCO2Emission 204.82434924825
scalar RSUExampleScenario.node[16].appl generatedWSMs 0
scalar RSUExampleScenario.node[16].appl receivedWSMs 0
scalar RSUExampleScenario.node[16].appl generatedBSMs 1092
scalar RSUExampleScenario.node[16].appl receivedBSMs 65988
scalar RSUExampleScenario.node[16].appl generatedWSAs 0
scalar RSUExampleScenario.node[16].appl receivedWSAs 0
scalar RSUExampleScenario.node[16].nic.phy80211p busyTime 0.071224761904858
scalar RSUExampleScenario.node[16].nic.mac1609_4 ReceivedUnicastPackets 0
scalar RSUExampleScenario.node[16].nic.mac1609_4 ReceivedBroadcasts 65988
scalar RSUExampleScenario.node[16].nic.mac1609_4 SentPackets 1092
scalar RSUExampleScenario.node[16].nic.mac1609_4 SentAcknowledgements 0
scalar RSUExampleScenario.node[16].nic.mac1609_4 RetriesExceeded 0
scalar RSUExampleScenario.node[16].nic.mac1609_4 SNIRLostPackets 8798
scalar RSUExampleScenario.node[16].nic.mac1609_4 RXTXLostPackets 0
scalar RSUExampleScenario.node[16].nic.mac1609_4 TotalLostPackets 8798
scalar RSUExampleScenario.node[16].nic.mac1609_4 DroppedPacketsInMac 0
scalar RSUExampleScenario.node[16].nic.mac1609_4 TooLittleTime 0
scalar RSUExampleScenario.node[16].nic.mac1609_4 TimesIntoBackoff 1092
scalar RSUExampleScenario.node[16].nic.mac1609_4 SlotsBackoff 1631
scalar RSUExampleScenario.node[16].nic.mac1609_4 NumInternalContention 0
scalar RSUExampleScenario.node[16].nic.mac1609_4 totalBusyTime 7.859956
scalar RSUExampleScenario.node[16].nic.mac1609_4 retriesExceeded:count 0
attr source org_car2x_veins_modules_mac_sigRetriesExceeded
scalar RSUExampleScenario.node[16].nic.mac1609_4 sentAcks:count 0
attr source org_car2x_veins_modules_mac_sigSentAck
scalar RSUExampleScenario.node[16].nic.mac1609_4 sentPackets:count 1092
attr source org_car2x_veins_modules_mac_sigSentPacket
scalar RSUExampleScenario.node[16].nic.mac1609_4 collisions:count 0
attr source org_car2x_veins_modules_mac_sigCollision
scalar RSUExampleScenario.node[16].nic.mac1609_4 channelBusy:timeavg 0.071977619047715
attr source org_car2x_veins_modules_mac_sigChannelBusy
scalar RSUExampleScenario.node[16].veinsmobility startTime 10.8
scalar RSUExampleScenario.node[16].veinsmobility totalTime 109.2
scalar RSUExampleScenario.node[16].veinsmobility stopTime 120
scalar RSUExampleScenario.node[16].veinsmobility minSpeed 2.9490388757845
scalar RSUExampleScenario.node[16].veinsmobility maxSpeed 7.7156791326499
scalar RSUExampleScenario.node[16].veinsmobility totalDistance 811.52130801644
scalar RSUExampleScenario.node[16].veinsmobility totalCO2Emission 202.92615116295
scalar RSUExampleScenario.node[17].appl generatedWSMs 0
scalar RSUExampleScenario.node[17].appl receivedWSMs 0
scalar RSUExampleScenario.node[17].appl generatedBSMs 1079
scalar RSUExampleScenario.node[17].appl receivedBSMs 62944
scalar RSUExampleScenario.node[17].appl generatedWSAs 0
scalar RSUExampleScenario.node[17].appl receivedWSAs 0
scalar RSUExampleScenario.node[17].nic.phy80211p busyTime 0.071882409638651
scalar RSUExampleScenario.node[17].nic.mac1609_4 ReceivedUnicastPackets 0
scalar RSUExampleScenario.node[17].nic.mac1609_4 ReceivedBroadcasts 62944
scalar RSUExampleScenario.node[17].nic.mac1609_4 SentPackets 1079
scalar RSUExampleScenario.node[17].nic.mac1609_4 SentAcknowledgements 0
scalar RSUExampleScenario.node[17].nic.mac1609_4 RetriesExceeded 0
scalar RSUExampleScenario.node[17].nic.mac1609_4 SNIRLostPackets 11634
scalar RSUExampleScenario.node[17].nic.mac1609_4 RXTXLostPackets 0
scalar RSUExampleScenario.node[17].nic.mac1609_4 TotalLostPackets 11634
scalar RSUExampleScenario.node[17].nic.mac1609_4 DroppedPacketsInMac 0
scalar RSUExampleScenario.node[17].nic.mac1609_4 TooLittleTime 0
scalar RSUExampleScenario.node[17].nic.mac1609_4 TimesIntoBackoff 1079
scalar RSUExampleScenario.node[17].nic.mac1609_4 SlotsBackoff 1619
scalar RSUExampleScenario.node[17].nic.mac1609_4 NumInternalContention 0
scalar RSUExampleScenario.node[17].nic.mac1609_4 totalBusyTime 7.836959703646
scalar RSUExampleScenario.node[17].nic.mac1609_4 retriesExceeded:count 0
attr source org_car2x_veins_modules_mac_sigRetriesExceeded
scalar RSUExampleScenario.node[17].nic.mac1609_4 sentAcks:count 0
attr source org_car2x_veins_modules_mac_sigSentAck
scalar RSUExampleScenario.node[17].nic.mac1609_4 sentPackets:count 1079
attr source org_car2x_veins_modules_mac_sigSentPacket
scalar RSUExampleScenario.node[17].nic.mac1609_4 collisions:count 0
attr source org_car2x_veins_modules_mac_sigCollision
scalar RSUExampleScenario.node[17].nic.mac1609_4 channelBusy:timeavg 0.072631693268364
attr source org_car2x_veins_modules_mac_sigChannelBusy
scalar RSUExampleScenario.node[17].veinsmobility startTime 12.1
scalar RSUExampleScenario.node[17].veinsmobility totalTime 107.9
scalar RSUExampleScenario.node[17].veinsmobility stopTime 120
scalar RSUExampleScenario.node[17].veinsmobility minSpeed 5.4377476281456
scalar RSUExampleScenario.node[17].veinsmobility maxSpeed 8.8529897470457
scalar RSUExampleScenario.node[17].veinsmobility totalDistance 938.44722382907
scalar RSUExampleScenario.node[17].veinsmobility totalCO2Emission 198.57592350242
scalar RSUExampleScenario.node[18].appl generatedWSMs 0
scalar RSUExampleScenario.node[18].appl receivedWSMs 0
scalar RSUExampleScenario.node[18].appl generatedBSMs 1073
scalar RSUExampleScenario.node[18].appl receivedBSMs 65853
scalar RSUExampleScenario.node[18].appl generatedWSAs 0
scalar RSUExampleScenario.node[18].appl receivedWSAs 0
scalar RSUExampleScenario.node[18].nic.phy80211p busyTime 0.072185498602147
scalar RSUExampleScenario.node[18].nic.mac1609_4 ReceivedUnicastPackets 0
scalar RSUExampleScenario.node[18].nic.mac1609_4 ReceivedBroadcasts 65853
scalar RSUExampleScenario.node[18].nic.mac1609_4 SentPackets 1073
scalar RSUExampleScenario.node[18].nic.mac1609_4 SentAcknowledgements 0
scalar RSUExampleScenario.node[18].nic.mac1609_4 RetriesExceeded 0
scalar RSUExampleScenario.node[18].nic.mac1609_4 SNIRLostPackets 8623
scalar RSUExampleScenario.node[18].nic.mac1609_4 RXTXLostPackets 0
scalar RSUExampleScenario.node[18].nic.mac1609_4 TotalLostPackets 8623
scalar RSUExampleScenario.node[18].nic.mac1609_4 DroppedPacketsInMac 0
scalar RSUExampleScenario.node[18].nic.mac1609_4 TooLittleTime 0
scalar RSUExampleScenario.node[18].nic.mac1609_4 TimesIntoBackoff 1073
scalar RSUExampleScenario.node[18].nic.mac1609_4 SlotsBackoff 1539
scalar RSUExampleScenario.node[18].nic.mac1609_4 NumInternalContention 0
scalar RSUExampleScenario.node[18].nic.mac1609_4 totalBusyTime 7.825721
scalar RSUExampleScenario.node[18].nic.mac1609_4 retriesExceeded:count 0
attr source org_car2x_veins_modules_mac_sigRetriesExceeded
scalar RSUExampleScenario.node[18].nic.mac1609_4 sentAcks:count 0
attr source org_car2x_veins_modules_mac_sigSentAck
scalar RSUExampleScenario.node[18].nic.mac1609_4 sentPackets:count 1073
attr source org_car2x_veins_modules_mac_sigSentPacket
scalar RSUExampleScenario.node[18].nic.mac1609_4 collisions:count 0
attr source org_car2x_veins_modules_mac_sigCollision
scalar RSUExampleScenario.node[18].nic.mac1609_4 channelBusy:timeavg 0.072933094128708
attr source org_car2x_veins_modules_mac_sigChannelBusy
scalar RSUExampleScenario.node[18].veinsmobility startTime 12.7
scalar RSUExampleScenario.node[18].veinsmobility totalTime 107.3
scalar RSUExampleScenario.node[18].veinsmobility stopTime 120
scalar RSUExampleScenario.node[18].veinsmobility minSpeed 2.8053553242871
scalar RSUExampleScenario.node[18].veinsmobility maxSpeed 7.7461000643456
scalar RSUExampleScenario.node[18].veinsmobility totalDistance 796.22762670135
scalar RSUExampleScenario.node[18].veinsmobility totalCO2Emission 201.26388668795
scalar RSUExampleScenario.node[19].appl generatedWSMs 0
scalar RSUExampleScenario.node[19].appl receivedWSMs 0
scalar RSUExampleScenario.node[19].appl generatedBSMs 1064
scalar RSUExampleScenario.node[19].appl receivedBSMs 66126
scalar RSUExampleScenario.node[19].appl generatedWSAs 0
scalar RSUExampleScenario.node[19].appl receivedWSAs 0
scalar RSUExampleScenario.node[19].nic.phy80211p busyTime 0.072486240601601
scalar RSUExampleScenario.node[19].nic.mac1609_4 ReceivedUnicastPackets 0
scalar RSUExampleScenario.node[19].nic.mac1609_4 ReceivedBroadcasts 66126
scalar RSUExampleScenario.node[19].nic.mac1609_4 SentPackets 1064
scalar RSUExampleScenario.node[19].nic.mac1609_4 SentAcknowledgements 0
scalar RSUExampleScenario.node[19].nic.mac1609_4 RetriesExceeded 0
scalar RSUExampleScenario.node[19].nic.mac1609_4 SNIRLostPackets 8033
scalar RSUExampleScenario.node[19].nic.mac1609_4 RXTXLostPackets 155
scalar RSUExampleScenario.node[19].nic.mac1609_4 TotalLostPackets 8188
scalar RSUExampleScenario.node[19].nic.mac1609_4 DroppedPacketsInMac 0
scalar RSUExampleScenario.node[19].nic.mac1609_4 TooLittleTime 0
scalar RSUExampleScenario.node[19].nic.mac1609_4 TimesIntoBackoff 1176
scalar RSUExampleScenario.node[19].nic.mac1609_4 SlotsBackoff 1749
scalar RSUExampleScenario.node[19].nic.mac1609_4 NumInternalContention 0
scalar RSUExampleScenario.node[19].nic.mac1609_4 totalBusyTime 7.807928
scalar RSUExampleScenario.node[19].nic.mac1609_4 retriesExceeded:count 0
attr source org_car2x_veins_modules_mac_sigRetriesExceeded
scalar RSUExampleScenario.node[19].nic.mac1609_4 sentAcks:count 0
attr source org_car2x_veins_modules_mac_sigSentAck
scalar RSUExampleScenario.node[19].nic.mac1609_4 sentPackets:count 1064
attr source org_car2x_veins_modules_mac_sigSentPacket
scalar RSUExampleScenario.node[19].nic.mac1609_4 collisions:count 0
attr source org_car2x_veins_modules_mac_sigCollision
scalar RSUExampleScenario.node[19].nic.mac1609_4 channelBusy:timeavg 0.073382781954985
attr source org_car2x_veins_modules_mac_sigChannelBusy
scalar RSUExampleScenario.node[19].veinsmobility startTime 13.6
scalar RSUExampleScenario.node[19].veinsmobility totalTime 106.4
scalar RSUExampleScenario.node[19].veinsmobility stopTime 120
scalar RSUExampleScenario.node[19].veinsmobility minSpeed 4.6934546700641
scalar RSUExampleScenario.node[19].veinsmobility maxSpeed 7.4924429925871
scalar RSUExampleScenario.node[19].veinsmobility totalDistance 786.34970098077
scalar RSUExampleScenario.node[19].veinsmobility totalCO2Emission 181.00093087474
scalar RSUExampleScenario.node[20].appl generatedWSMs 0
scalar RSUExampleScenario.node[20].appl receivedWSMs 0
scalar RSUExampleScenario.node[20].appl generatedBSMs 1054
scalar RSUExampleScenario.node[20].appl receivedBSMs 66022
scalar RSUExampleScenario.node[20].appl generatedWSAs 0
scalar RSUExampleScenario.node[20].appl receivedWSAs 0
scalar RSUExampleScenario.node[20].nic.phy80211p busyTime 0.073139430740136
scalar RSUExampleScenario.node[20].nic.mac1609_4 ReceivedUnicastPackets 0
scalar RSUExampleScenario.node[20].nic.mac1609_4 ReceivedBroadcasts 66022
scalar RSUExampleScenario.node[20].nic.mac1609_4 SentPackets 1054
scalar RSUExampleScenario.node[20].nic.mac1609_4 SentAcknowledgements 0
scalar RSUExampleScenario.node[20].nic.mac1609_4 RetriesExceeded 0
scalar RSUExampleScenario.node[20].nic.mac1609_4 SNIRLostPackets 8102
scalar RSUExampleScenario.node[20].nic.mac1609_4 RXTXLostPackets 0
scalar RSUExampleScenario.node[20].nic.mac1609_4 TotalLostPackets 8102
scalar RSUExampleScenario.node[20].nic.mac1609_4 DroppedPacketsInMac 0
scalar RSUExampleScenario.node[20].nic.mac1609_4 TooLittleTime 0
scalar RSUExampleScenario.node[20].nic.mac1609_4 TimesIntoBackoff 1054
scalar RSUExampleScenario.node[20].nic.mac1609_4 SlotsBackoff 1646
scalar RSUExampleScenario.node[20].nic.mac1609_4 NumInternalContention 0
scalar RSUExampleScenario.node[20].nic.mac1609_4 totalBusyTime 7.787118124305
scalar RSUExampleScenario.node[20].nic.mac1609_4 retriesExceeded:count 0
attr source org_car2x_veins_modules_mac_sigRetriesExceeded
scalar RSUExampleScenario.node[20].nic.mac1609_4 sentAcks:count 0
attr source org_car2x_veins_modules_mac_sigSentAck
scalar RSUExampleScenario.node[20].nic.mac1609_4 sentPackets:count 1054
attr source org_car2x_veins_modules_mac_sigSentPacket
scalar RSUExampleScenario.node[20].nic.mac1609_4 collisions:count 0
attr source org_car2x_veins_modules_mac_sigCollision
scalar RSUExampleScenario.node[20].nic.mac1609_4 channelBusy:timeavg 0.073881576132024
attr source org_car2x_veins_modules_mac_sigChannelBusy
scalar RSUExampleScenario.node[20].veinsmobility startTime 14.6
scalar RSUExampleScenario.node[20].veinsmobility totalTime 105.4
scalar RSUExampleScenario.node[20].veinsmobility stopTime 120
scalar RSUExampleScenario.node[20].veinsmobility minSpeed 2.6827176361263
scalar RSUExampleScenario.node[20].veinsmobility maxSpeed 7.2418669970172
scalar RSUExampleScenario.node[20].veinsmobility totalDistance 744.26515072879
scalar RSUExampleScenario.node[20].veinsmobility totalCO2Emission 176.87012084572
scalar RSUExampleScenario.node[21].appl generatedWSMs 0
scalar RSUExampleScenario.node[21].appl receivedWSMs 0
scalar RSUExampleScenario.node[21].appl generatedBSMs 1049
scalar RSUExampleScenario.node[21].appl receivedBSMs 65960
scalar RSUExampleScenario.node[21].appl generatedWSAs 0
scalar RSUExampleScenario.node[21].appl receivedWSAs 0
scalar RSUExampleScenario.node[21].nic.phy80211p busyTime 0.073388903717924
scalar RSUExampleScenario.node[21].nic.mac1609_4 ReceivedUnicastPackets 0
scalar RSUExampleScenario.node[21].nic.mac1609_4 ReceivedBroadcasts 65960
scalar RSUExampleScenario.node[21].nic.mac1609_4 SentPackets 1049
scalar RSUExampleScenario.node[21].nic.mac1609_4 SentAcknowledgements 0
scalar RSUExampleScenario.node[21].nic.mac1609_4 RetriesExceeded 0
scalar RSUExampleScenario.node[21].nic.mac1609_4 SNIRLostPackets 8064
scalar RSUExampleScenario.node[21].nic.mac1609_4 RXTXLostPackets 0
scalar RSUExampleScenario.node[21].nic.mac1609_4 TotalLostPackets 8064
scalar RSUExampleScenario.node[21].nic.mac1609_4 DroppedPacketsInMac 0
scalar RSUExampleScenario.node[21].nic.mac1609_4 TooLittleTime 0
scalar RSUExampleScenario.node[21].nic.mac1609_4 TimesIntoBackoff 1049
scalar RSUExampleScenario.node[21].nic.mac1609_4 SlotsBackoff 1586
scalar RSUExampleScenario.node[21].nic.mac1609_4 NumInternalContention 0
scalar RSUExampleScenario.node[21].nic.mac1609_4 totalBusyTime 7.776193
scalar RSUExampleScenario.node[21].nic.mac1609_4 retriesExceeded:count 0
attr source org_car2x_veins_modules_mac_sigRetriesExceeded
scalar RSUExampleScenario.node[21].nic.mac1609_4 sentAcks:count 0
attr source org_car2x_veins_modules_mac_sigSentAck
scalar RSUExampleScenario.node[21].nic.mac1609_4 sentPackets:count 1049
attr source org_car2x_veins_modules_mac_sigSentPacket
scalar RSUExampleScenario.node[21].nic.mac1609_4 collisions:count 0
attr source org_car2x_veins_modules_mac_sigCollision
scalar RSUExampleScenario.node[21].nic.mac1609_4 channelBusy:timeavg 0.074129580553005
attr source org_car2x_veins_modules_mac_sigChannelBusy
scalar RSUExampleScenario.node[21].veinsmobility startTime 15.1
scalar RSUExampleScenario.node[21].veinsmobility totalTime 104.9
scalar RSUExampleScenario.node[21].veinsmobility stopTime 120
scalar RSUExampleScenario.node[21].veinsmobility minSpeed 4.0038352128955
scalar RSUExampleScenario.node[21].veinsmobility maxSpeed 7.5290198617269
scalar RSUExampleScenario.node[21].veinsmobility totalDistance 771.20902227264
scalar RSUExampleScenario.node[21].veinsmobility totalCO2Emission 185.95714061308
scalar RSUExampleScenario.node[22].appl generatedWSMs 0
scalar RSUExampleScenario.node[22].appl receivedWSMs 0
scalar RSUExampleScenario.node[22].appl generatedBSMs 1034
scalar RSUExampleScenario.node[22].appl receivedBSMs 65739
scalar RSUExampleScenario.node[22].appl generatedWSAs 0
scalar RSUExampleScenario.node[22].appl receivedWSAs 0
scalar RSUExampleScenario.node[22].nic.phy80211p busyTime 0.074136711798938
scalar RSUExampleScenario.node[22].nic.mac1609_4 ReceivedUnicastPackets 0
scalar RSUExampleScenario.node[22].nic.mac1609_4 ReceivedBroadcasts 65739
scalar RSUExampleScenario.node[22].nic.mac1609_4 SentPackets 1034
scalar RSUExampleScenario.node[22].nic.mac1609_4 SentAcknowledgements 0
scalar RSUExampleScenario.node[22].nic.mac1609_4 RetriesExceeded 0
scalar RSUExampleScenario.node[22].nic.mac1609_4 SNIRLostPackets 7970
scalar RSUExampleScenario.node[22].nic.mac1609_4 RXTXLostPackets 0
scalar RSUExampleScenario.node[22].nic.mac1609_4 TotalLostPackets 7970
scalar RSUExampleScenario.node[22].nic.mac1609_4 DroppedPacketsInMac 0
scalar RSUExampleScenario.node[22].nic.mac1609_4 TooLittleTime 0
scalar RSUExampleScenario.node[22].nic.mac1609_4 TimesIntoBackoff 1034
scalar RSUExampleScenario.node[22].nic.mac1609_4 SlotsBackoff 1543
scalar RSUExampleScenario.node[22].nic.mac1609_4 NumInternalContention 0
scalar RSUExampleScenario.node[22].nic.mac1609_4 totalBusyTime 7.741858
scalar RSUExampleScenario.node[22].nic.mac1609_4 retriesExceeded:count 0
attr source org_car2x_veins_modules_mac_sigRetriesExceeded
scalar RSUExampleScenario.node[22].nic.mac1609_4 sentAcks:count 0
attr source org_car2x_veins_modules_mac_sigSentAck
scalar RSUExampleScenario.node[22].nic.mac1609_4 sentPackets:count 1034
attr source org_car2x_veins_modules_mac_sigSentPacket
scalar RSUExampleScenario.node[22].nic.mac1609_4 collisions:count 0
attr source org_car2x_veins_modules_mac_sigCollision
scalar RSUExampleScenario.node[22].nic.mac1609_4 channelBusy:timeavg 0.074872901354063
attr source org_car2x_veins_modules_mac_sigChannelBusy
scalar RSUExampleScenario.node[22].veinsmobility startTime 16.6
scalar RSUExampleScenario.node[22].veinsmobility totalTime 103.4
scalar RSUExampleScenario.node[22].veinsmobility stopTime 120
scalar RSUExampleScenario.node[22].veinsmobility minSpeed 2.9491434716636
scalar RSUExampleScenario.node[22].veinsmobility maxSpeed 7.290246196149
scalar RSUExampleScenario.node[22].veinsmobility totalDistance 729.35597682912
scalar RSUExampleScenario.node[22].veinsmobility totalCO2Emission 180.15894074443
scalar RSUExampleScenario.node[23].appl generatedWSMs 0
scalar RSUExampleScenario.node[23].appl receivedWSMs 0
scalar RSUExampleScenario.node[23].appl generatedBSMs 1033
scalar RSUExampleScenario.node[23].appl receivedBSMs 65755
scalar RSUExampleScenario.node[23].appl generatedWSAs 0
scalar RSUExampleScenario.node[23].appl receivedWSAs 0
scalar RSUExampleScenario.node[23].nic.phy80211p busyTime 0.074186331074639
scalar RSUExampleScenario.node[23].nic.mac1609_4 ReceivedUnicastPackets 0
scalar RSUExampleScenario.node[23].nic.mac1609_4 ReceivedBroadcasts 65755
scalar RSUExampleScenario.node[23].nic.mac1609_4 SentPackets 1033
scalar RSUExampleScenario.node[23].nic.mac1609_4 SentAcknowledgements 0
scalar RSUExampleScenario.node[23].nic.mac1609_4 RetriesExceeded 0
scalar RSUExampleScenario.node[23].nic.mac1609_4 SNIRLostPackets 7932
scalar RSUExampleScenario.node[23].nic.mac1609_4 RXTXLostPackets 0
scalar RSUExampleScenario.node[23].nic.mac1609_4 TotalLostPackets 7932
scalar RSUExampleScenario.node[23].nic.mac1609_4 DroppedPacketsInMac 0
scalar RSUExampleScenario.node[23].nic.mac1609_4 TooLittleTime 0
scalar RSUExampleScenario.node[23].nic.mac1609_4 TimesIntoBackoff 1033
scalar RSUExampleScenario.node[23].nic.mac1609_4 SlotsBackoff 1585
scalar RSUExampleScenario.node[23].nic.mac1609_4 NumInternalContention 0
scalar RSUExampleScenario.node[23].nic.mac1609_4 totalBusyTime 7.739465
scalar RSUExampleScenario.node[23].nic.mac1609_4 retriesExceeded:count 0
attr source org_car2x_veins_modules_mac_sigRetriesExceeded
scalar RSUExampleScenario.node[23].nic.mac1609_4 sentAcks:count 0
attr source org_car2x_veins_modules_mac_sigSentAck
scalar RSUExampleScenario.node[23].nic.mac1609_4 sentPackets:count 1033
attr source org_car2x_veins_modules_mac_sigSentPacket
scalar RSUExampleScenario.node[23].nic.mac1609_4 collisions:count 0
attr source org_car2x_veins_modules_mac_sigCollision
scalar RSUExampleScenario.node[23].nic.mac1609_4 channelBusy:timeavg 0.074922216844242
attr source org_car2x_veins_modules_mac_sigChannelBusy
scalar RSUExampleScenario.node[23].veinsmobility startTime 16.7
scalar RSUExampleScenario.node[23].veinsmobility totalTime 103.3
scalar RSUExampleScenario.node[23].veinsmobility stopTime 120
scalar RSUExampleScenario.node[23].veinsmobility minSpeed 3.6765413130432
scalar RSUExampleScenario.node[23].veinsmobility maxSpeed 7.549271933766
scalar RSUExampleScenario.node[23].veinsmobility totalDistance 756.05006288684
scalar RSUExampleScenario.node[23].veinsmobility totalCO2Emission 189.13218476897
scalar RSUExampleScenario.node[24].appl generatedWSMs 0
scalar RSUExampleScenario.node[24].appl receivedWSMs 0
scalar RSUExampleScenario.node[24].appl generatedBSMs 1016
scalar RSUExampleScenario.node[24].appl receivedBSMs 65480
scalar RSUExampleScenario.node[24].appl generatedWSAs 0
scalar RSUExampleScenario.node[24].appl receivedWSAs 0
scalar RSUExampleScenario.node[24].nic.phy80211p busyTime 0.075027401574902
scalar RSUExampleScenario.node[24].nic.mac1609_4 ReceivedUnicastPackets 0
scalar RSUExampleScenario.node[24].nic.mac1609_4 ReceivedBroadcasts 65480
scalar RSUExampleScenario.node[24].nic.mac1609_4 SentPackets 1016
scalar RSUExampleScenario.node[24].nic.mac1609_4 SentAcknowledgements 0
scalar RSUExampleScenario.node[24].nic.mac1609_4 RetriesExceeded 0
scalar RSUExampleScenario.node[24].nic.mac1609_4 SNIRLostPackets 7816
scalar RSUExampleScenario.node[24].nic.mac1609_4 RXTXLostPackets 0
scalar RSUExampleScenario.node[24].nic.mac1609_4 TotalLostPackets 7816
scalar RSUExampleScenario.node[24].nic.mac1609_4 DroppedPacketsInMac 0
scalar RSUExampleScenario.node[24].nic.mac1609_4 TooLittleTime 0
scalar RSUExampleScenario.node[24].nic.mac1609_4 TimesIntoBackoff 1016
scalar RSUExampleScenario.node[24].nic.mac1609_4 SlotsBackoff 1468
scalar RSUExampleScenario.node[24].nic.mac1609_4 NumInternalContention 0
scalar RSUExampleScenario.node[24].nic.mac1609_4 totalBusyTime 7.697016
scalar RSUExampleScenario.node[24].nic.mac1609_4 retriesExceeded:count 0
attr source org_car2x_veins_modules_mac_sigRetriesExceeded
scalar RSUExampleScenario.node[24].nic.mac1609_4 sentAcks:count 0
attr source org_car2x_veins_modules_mac_sigSentAck
scalar RSUExampleScenario.node[24].nic.mac1609_4 sentPackets:count 1016
attr source org_car2x_veins_modules_mac_sigSentPacket
scalar RSUExampleScenario.node[24].nic.mac1609_4 collisions:count 0
attr source org_car2x_veins_modules_mac_sigCollision
scalar RSUExampleScenario.node[24].nic.mac1609_4 channelBusy:timeavg 0.075758031496162
attr source org_car2x_veins_modules_mac_sigChannelBusy
scalar RSUExampleScenario.node[24].veinsmobility startTime 18.4
scalar RSUExampleScenario.node[24].veinsmobility totalTime 101.6
scalar RSUExampleScenario.node[24].veinsmobility stopTime 120
scalar RSUExampleScenario.node[24].veinsmobility minSpeed 3.2742588350021
scalar RSUExampleScenario.node[24].veinsmobility maxSpeed 7.5740471472822
scalar RSUExampleScenario.node[24].veinsmobility totalDistance 740.90972649757
scalar RSUExampleScenario.node[24].veinsmobility totalCO2Emission 186.01167693944
scalar RSUExampleScenario.node[25].appl generatedWSMs 0
scalar RSUExampleScenario.node[25].appl receivedWSMs 0
scalar RSUExampleScenario.node[25].appl generatedBSMs 1015
scalar RSUExampleScenario.node[25].appl receivedBSMs 65431
scalar RSUExampleScenario.node[25].appl generatedWSAs 0
scalar RSUExampleScenario.node[25].appl receivedWSAs 0
scalar RSUExampleScenario.node[25].nic.phy80211p busyTime 0.075076729064138
scalar RSUExampleScenario.node[25].nic.mac1609_4 ReceivedUnicastPackets 0
scalar RSUExampleScenario.node[25].nic.mac1609_4 ReceivedBroadcasts 65431
scalar RSUExampleScenario.node[25].nic.mac1609_4 SentPackets 1015
scalar RSUExampleScenario.node[25].nic.mac1609_4 SentAcknowledgements 0
scalar RSUExampleScenario.node[25].nic.mac1609_4 RetriesExceeded 0
scalar RSUExampleScenario.node[25].nic.mac1609_4 SNIRLostPackets 7841
scalar RSUExampleScenario.node[25].nic.mac1609_4 RXTXLostPackets 0
scalar RSUExampleScenario.node[25].nic.mac1609_4 TotalLostPackets 7841
scalar RSUExampleScenario.node[25].nic.mac1609_4 DroppedPacketsInMac 0
scalar RSUExampleScenario.node[25].nic.mac1609_4 TooLittleTime 0
scalar RSUExampleScenario.node[25].nic.mac1609_4 TimesIntoBackoff 1015
scalar RSUExampleScenario.node[25].nic.mac1609_4 SlotsBackoff 1536
scalar RSUExampleScenario.node[25].nic.mac1609_4 NumInternalContention 0
scalar RSUExampleScenario.node[25].nic.mac1609_4 totalBusyTime 7.694415
scalar RSUExampleScenario.node[25].nic.mac1609_4 retriesExceeded:count 0
attr source org_car2x_veins_modules_mac_sigRetriesExceeded
scalar RSUExampleScenario.node[25].nic.mac1609_4 sentAcks:count 0
attr source org_car2x_veins_modules_mac_sigSentAck
scalar RSUExampleScenario.node[25].nic.mac1609_4 sentPackets:count 1015
attr source org_car2x_veins_modules_mac_sigSentPacket
scalar RSUExampleScenario.node[25].nic.mac1609_4 collisions:count 0
attr source org_car2x_veins_modules_mac_sigCollision
scalar RSUExampleScenario.node[25].nic.mac1609_4 channelBusy:timeavg 0.075807044335074
attr source org_car2x_veins_modules_mac_sigChannelBusy
scalar RSUExampleScenario.node[25].veinsmobility startTime 18.5
scalar RSUExampleScenario.node[25].veinsmobility totalTime 101.5
scalar RSUExampleScenario.node[25].veinsmobility stopTime 120
scalar RSUExampleScenario.node[25].veinsmobility minSpeed 2.7339425221583
scalar RSUExampleScenario.node[25].veinsmobility maxSpeed 7.3055707777912
scalar RSUExampleScenario.node[25].veinsmobility totalDistance 714.4695237633
scalar RSUExampleScenario.node[25].veinsmobility totalCO2Emission 181.47076429795
scalar RSUExampleScenario.node[26].appl generatedWSMs 0
scalar RSUExampleScenario.node[26].appl receivedWSMs 0
scalar RSUExampleScenario.node[26].appl generatedBSMs 998
scalar RSUExampleScenario.node[26].appl receivedBSMs 65126
scalar RSUExampleScenario.node[26].appl generatedWSAs 0
scalar RSUExampleScenario.node[26].appl receivedWSAs 0
scalar RSUExampleScenario.node[26].nic.phy80211p busyTime 0.075912705410921
scalar RSUExampleScenario.node[26].nic.mac1609_4 ReceivedUnicastPackets 0
scalar RSUExampleScenario.node[26].nic.mac1609_4 ReceivedBroadcasts 65126
scalar RSUExampleScenario.node[26].nic.mac1609_4 SentPackets 998
scalar RSUExampleScenario.node[26].nic.mac1609_4 SentAcknowledgements 0
scalar RSUExampleScenario.node[26].nic.mac1609_4 RetriesExceeded 0
scalar RSUExampleScenario.node[26].nic.mac1609_4 SNIRLostPackets 7721
scalar RSUExampleScenario.node[26].nic.mac1609_4 RXTXLostPackets 0
scalar RSUExampleScenario.node[26].nic.mac1609_4 TotalLostPackets 7721
scalar RSUExampleScenario.node[26].nic.mac1609_4 DroppedPacketsInMac 0
scalar RSUExampleScenario.node[26].nic.mac1609_4 TooLittleTime 0
scalar RSUExampleScenario.node[26].nic.mac1609_4 TimesIntoBackoff 998
scalar RSUExampleScenario.node[26].nic.mac1609_4 SlotsBackoff 1470
scalar RSUExampleScenario.node[26].nic.mac1609_4 NumInternalContention 0
scalar RSUExampleScenario.node[26].nic.mac1609_4 totalBusyTime 7.64843
scalar RSUExampleScenario.node[26].nic.mac1609_4 retriesExceeded:count 0
attr source org_car2x_veins_modules_mac_sigRetriesExceeded
scalar RSUExampleScenario.node[26].nic.mac1609_4 sentAcks:count 0
attr source org_car2x_veins_modules_mac_sigSentAck
scalar RSUExampleScenario.node[26].nic.mac1609_4 sentPackets:count 998
attr source org_car2x_veins_modules_mac_sigSentPacket
scalar RSUExampleScenario.node[26].nic.mac1609_4 collisions:count 0
attr source org_car2x_veins_modules_mac_sigCollision
scalar RSUExampleScenario.node[26].nic.mac1609_4 channelBusy:timeavg 0.0766375751504
attr source org_car2x_veins_modules_mac_sigChannelBusy
scalar RSUExampleScenario.node[26].veinsmobility startTime 20.2
scalar RSUExampleScenario.node[26].veinsmobility totalTime 99.8
scalar RSUExampleScenario.node[26].veinsmobility stopTime 120
scalar RSUExampleScenario.node[26].veinsmobility minSpeed 3.0522047315607
scalar RSUExampleScenario.node[26].veinsmobility maxSpeed 7.5758684448088
scalar RSUExampleScenario.node[26].veinsmobility totalDistance 725.73729422235
scalar RSUExampleScenario.node[26].veinsmobility totalCO2Emission 181.78111762598
scalar RSUExampleScenario.node[27].appl generatedWSMs 0
scalar RSUExampleScenario.node[27].appl receivedWSMs 0
scalar RSUExampleScenario.node[27].appl generatedBSMs 995
scalar RSUExampleScenario.node[27].appl receivedBSMs 65002
scalar RSUExampleScenario.node[27].appl generatedWSAs 0
scalar RSUExampleScenario.node[27].appl receivedWSAs 0
scalar RSUExampleScenario.node[27].nic.phy80211p busyTime 0.076060060301607
scalar RSUExampleScenario.node[27].nic.mac1609_4 ReceivedUnicastPackets 0
scalar RSUExampleScenario.node[27].nic.mac1609_4 ReceivedBroadcasts 65002
scalar RSUExampleScenario.node[27].nic.mac1609_4 SentPackets 995
scalar RSUExampleScenario.node[27].nic.mac1609_4 SentAcknowledgements 0
scalar RSUExampleScenario.node[27].nic.mac1609_4 RetriesExceeded 0
scalar RSUExampleScenario.node[27].nic.mac1609_4 SNIRLostPackets 7767
scalar RSUExampleScenario.node[27].nic.mac1609_4 RXTXLostPackets 0
scalar RSUExampleScenario.node[27].nic.mac1609_4 TotalLostPackets 7767
scalar RSUExampleScenario.node[27].nic.mac1609_4 DroppedPacketsInMac 0
scalar RSUExampleScenario.node[27].nic.mac1609_4 TooLittleTime 0
scalar RSUExampleScenario.node[27].nic.mac1609_4 TimesIntoBackoff 995
scalar RSUExampleScenario.node[27].nic.mac1609_4 SlotsBackoff 1439
scalar RSUExampleScenario.node[27].nic.mac1609_4 NumInternalContention 0
scalar RSUExampleScenario.node[27].nic.mac1609_4 totalBusyTime 7.640003011612
scalar RSUExampleScenario.node[27].nic.mac1609_4 retriesExceeded:count 0
attr source org_car2x_veins_modules_mac_sigRetriesExceeded
scalar RSUExampleScenario.node[27].nic.mac1609_4 sentAcks:count 0
attr source org_car2x_veins_modules_mac_sigSentAck
scalar RSUExampleScenario.node[27].nic.mac1609_4 sentPackets:count 995
attr source org_car2x_veins_modules_mac_sigSentPacket
scalar RSUExampleScenario.node[27].nic.mac1609_4 collisions:count 0
attr source org_car2x_veins_modules_mac_sigCollision
scalar RSUExampleScenario.node[27].nic.mac1609_4 channelBusy:timeavg 0.076783949865546
attr source org_car2x_veins_modules_mac_sigChannelBusy
scalar RSUExampleScenario.node[27].veinsmobility startTime 20.5
scalar RSUExampleScenario.node[27].veinsmobility totalTime 99.5
scalar RSUExampleScenario.node[27].veinsmobility stopTime 120
scalar RSUExampleScenario.node[27].veinsmobility minSpeed 2.7398172737969
scalar RSUExampleScenario.node[27].veinsmobility maxSpeed 7.3173048416073
scalar RSUExampleScenario.node[27].veinsmobility totalDistance 699.57115423584
scalar RSUExampleScenario.node[27].veinsmobility totalCO2Emission 179.6319158944
scalar RSUExampleScenario.node[28].appl generatedWSMs 0
scalar RSUExampleScenario.node[28].appl receivedWSMs 0
scalar RSUExampleScenario.node[28].appl generatedBSMs 979
scalar RSUExampleScenario.node[28].appl receivedBSMs 64723
scalar RSUExampleScenario.node[28].appl generatedWSAs 0
scalar RSUExampleScenario.node[28].appl receivedWSAs 0
scalar RSUExampleScenario.node[28].nic.phy80211p busyTime 0.076844208375993
scalar RSUExampleScenario.node[28].nic.mac1609_4 ReceivedUnicastPackets 0
scalar RSUExampleScenario.node[28].nic.mac1609_4 ReceivedBroadcasts 64723
scalar RSUExampleScenario.node[28].nic.mac1609_4 SentPackets 979
scalar RSUExampleScenario.node[28].nic.mac1609_4 SentAcknowledgements 0
scalar RSUExampleScenario.node[28].nic.mac1609_4 RetriesExceeded 0
scalar RSUExampleScenario.node[28].nic.mac1609_4 SNIRLostPackets 7614
scalar RSUExampleScenario.node[28].nic.mac1609_4 RXTXLostPackets 0
scalar RSUExampleScenario.node[28].nic.mac1609_4 TotalLostPackets 7614
scalar RSUExampleScenario.node[28].nic.mac1609_4 DroppedPacketsInMac 0
scalar RSUExampleScenario.node[28].nic.mac1609_4 TooLittleTime 0
scalar RSUExampleScenario.node[28].nic.mac1609_4 TimesIntoBackoff 1231
scalar RSUExampleScenario.node[28].nic.mac1609_4 SlotsBackoff 1895
scalar RSUExampleScenario.node[28].nic.mac1609_4 NumInternalContention 0
scalar RSUExampleScenario.node[28].nic.mac1609_4 totalBusyTime 7.593395
scalar RSUExampleScenario.node[28].nic.mac1609_4 retriesExceeded:count 0
attr source org_car2x_veins_modules_mac_sigRetriesExceeded
scalar RSUExampleScenario.node[28].nic.mac1609_4 sentAcks:count 0
attr source org_car2x_veins_modules_mac_sigSentAck
scalar RSUExampleScenario.node[28].nic.mac1609_4 sentPackets:count 979
attr source org_car2x_veins_modules_mac_sigSentPacket
scalar RSUExampleScenario.node[28].nic.mac1609_4 collisions:count 0
attr source org_car2x_veins_modules_mac_sigCollision
scalar RSUExampleScenario.node[28].nic.mac1609_4 channelBusy:timeavg 0.077562768130845
attr source org_car2x_veins_modules_mac_sigChannelBusy
scalar RSUExampleScenario.node[28].veinsmobility startTime 22.1
scalar RSUExampleScenario.node[28].veinsmobility totalTime 97.9
scalar RSUExampleScenario.node[28].veinsmobility stopTime 120
scalar RSUExampleScenario.node[28].veinsmobility minSpeed 2.8849404444119
scalar RSUExampleScenario.node[28].veinsmobility maxSpeed 7.5939874592275
scalar RSUExampleScenario.node[28].veinsmobility totalDistance 710.58747003325
scalar RSUExampleScenario.node[28].veinsmobility totalCO2Emission 180.01979207231
scalar RSUExampleScenario.node[29].appl generatedWSMs 0
scalar RSUExampleScenario.node[29].appl receivedWSMs 0
scalar RSUExampleScenario.node[29].appl generatedBSMs 975
scalar RSUExampleScenario.node[29].appl receivedBSMs 64565
scalar RSUExampleScenario.node[29].appl generatedWSAs 0
scalar RSUExampleScenario.node[29].appl receivedWSAs 0
scalar RSUExampleScenario.node[29].nic.phy80211p busyTime 0.077040000000099
scalar RSUExampleScenario.node[29].nic.mac1609_4 ReceivedUnicastPackets 0
scalar RSUExampleScenario.node[29].nic.mac1609_4 ReceivedBroadcasts 64565
scalar RSUExampleScenario.node[29].nic.mac1609_4 SentPackets 975
scalar RSUExampleScenario.node[29].nic.mac1609_4 SentAcknowledgements 0
scalar RSUExampleScenario.node[29].nic.mac1609_4 RetriesExceeded 0
scalar RSUExampleScenario.node[29].nic.mac1609_4 SNIRLostPackets 7660
scalar RSUExampleScenario.node[29].nic.mac1609_4 RXTXLostPackets 0
scalar RSUExampleScenario.node[29].nic.mac1609_4 TotalLostPackets 7660
scalar RSUExampleScenario.node[29].nic.mac1609_4 DroppedPacketsInMac 0
scalar RSUExampleScenario.node[29].nic.mac1609_4 TooLittleTime 0
scalar RSUExampleScenario.node[29].nic.mac1609_4 TimesIntoBackoff 975
scalar RSUExampleScenario.node[29].nic.mac1609_4 SlotsBackoff 1443
scalar RSUExampleScenario.node[29].nic.mac1609_4 NumInternalContention 0
scalar RSUExampleScenario.node[29].nic.mac1609_4 totalBusyTime 7.581327049702
scalar RSUExampleScenario.node[29].nic.mac1609_4 retriesExceeded:count 0
attr source org_car2x_veins_modules_mac_sigRetriesExceeded
scalar RSUExampleScenario.node[29].nic.mac1609_4 sentAcks:count 0
attr source org_car2x_veins_modules_mac_sigSentAck
scalar RSUExampleScenario.node[29].nic.mac1609_4 sentPackets:count 975
attr source org_car2x_veins_modules_mac_sigSentPacket
scalar RSUExampleScenario.node[29].nic.mac1609_4 collisions:count 0
attr source org_car2x_veins_modules_mac_sigCollision
scalar RSUExampleScenario.node[29].nic.mac1609_4 channelBusy:timeavg 0.077757200509863
attr source org_car2x_veins_modules_mac_sigChannelBusy
scalar RSUExampleScenario.node[29].veinsmobility startTime 22.5
scalar RSUExampleScenario.node[29].veinsmobility totalTime 97.5
scalar RSUExampleScenario.node[29].veinsmobility stopTime 120
scalar RSUExampleScenario.node[29].veinsmobility minSpeed 2.7350336780886
scalar RSUExampleScenario.node[29].veinsmobility maxSpeed 7.3348821465852
scalar RSUExampleScenario.node[29].veinsmobility totalDistance 684.67672606516
scalar RSUExampleScenario.node[29].veinsmobility totalCO2Emission 176.78008003946
scalar RSUExampleScenario.node[30].appl generatedWSMs 0
scalar RSUExampleScenario.node[30].appl receivedWSMs 0
scalar RSUExampleScenario.node[30].appl generatedBSMs 960
scalar RSUExampleScenario.node[30].appl receivedBSMs 64262
scalar RSUExampleScenario.node[30].appl generatedWSAs 0
scalar RSUExampleScenario.node[30].appl receivedWSAs 0
scalar RSUExampleScenario.node[30].nic.phy80211p busyTime 0.077772500000099
scalar RSUExampleScenario.node[30].nic.mac1609_4 ReceivedUnicastPackets 0
scalar RSUExampleScenario.node[30].nic.mac1609_4 ReceivedBroadcasts 64262
scalar RSUExampleScenario.node[30].nic.mac1609_4 SentPackets 960
scalar RSUExampleScenario.node[30].nic.mac1609_4 SentAcknowledgements 0
scalar RSUExampleScenario.node[30].nic.mac1609_4 RetriesExceeded 0
scalar RSUExampleScenario.node[30].nic.mac1609_4 SNIRLostPackets 7528
scalar RSUExampleScenario.node[30].nic.mac1609_4 RXTXLostPackets 0
scalar RSUExampleScenario.node[30].nic.mac1609_4 TotalLostPackets 7528
scalar RSUExampleScenario.node[30].nic.mac1609_4 DroppedPacketsInMac 0
scalar RSUExampleScenario.node[30].nic.mac1609_4 TooLittleTime 0
scalar RSUExampleScenario.node[30].nic.mac1609_4 TimesIntoBackoff 960
scalar RSUExampleScenario.node[30].nic.mac1609_4 SlotsBackoff 1441
scalar RSUExampleScenario.node[30].nic.mac1609_4 NumInternalContention 0
scalar RSUExampleScenario.node[30].nic.mac1609_4 totalBusyTime 7.534512
scalar RSUExampleScenario.node[30].nic.mac1609_4 retriesExceeded:count 0
attr source org_car2x_veins_modules_mac_sigRetriesExceeded
scalar RSUExampleScenario.node[30].nic.mac1609_4 sentAcks:count 0
attr source org_car2x_veins_modules_mac_sigSentAck
scalar RSUExampleScenario.node[30].nic.mac1609_4 sentPackets:count 960
attr source org_car2x_veins_modules_mac_sigSentPacket
scalar RSUExampleScenario.node[30].nic.mac1609_4 collisions:count 0
attr source org_car2x_veins_modules_mac_sigCollision
scalar RSUExampleScenario.node[30].nic.mac1609_4 channelBusy:timeavg 0.078484500000099
attr source org_car2x_veins_modules_mac_sigChannelBusy
scalar RSUExampleScenario.node[30].veinsmobility startTime 24
scalar RSUExampleScenario.node[30].veinsmobility totalTime 96
scalar RSUExampleScenario.node[30].veinsmobility stopTime 120
[...]
scalar RSUExampleScenario.node[115].nic.mac1609_4 ReceivedUnicastPackets 0
scalar RSUExampleScenario.node[115].nic.mac1609_4 ReceivedBroadcasts 5737
scalar RSUExampleScenario.node[115].nic.mac1609_4 SentPackets 81
scalar RSUExampleScenario.node[115].nic.mac1609_4 SentAcknowledgements 0
scalar RSUExampleScenario.node[115].nic.mac1609_4 RetriesExceeded 0
scalar RSUExampleScenario.node[115].nic.mac1609_4 SNIRLostPackets 3095
scalar RSUExampleScenario.node[115].nic.mac1609_4 RXTXLostPackets 0
scalar RSUExampleScenario.node[115].nic.mac1609_4 TotalLostPackets 3095
scalar RSUExampleScenario.node[115].nic.mac1609_4 DroppedPacketsInMac 0
scalar RSUExampleScenario.node[115].nic.mac1609_4 TooLittleTime 0
scalar RSUExampleScenario.node[115].nic.mac1609_4 TimesIntoBackoff 81
scalar RSUExampleScenario.node[115].nic.mac1609_4 SlotsBackoff 120
scalar RSUExampleScenario.node[115].nic.mac1609_4 NumInternalContention 0
scalar RSUExampleScenario.node[115].nic.mac1609_4 totalBusyTime 0.915281
scalar RSUExampleScenario.node[115].nic.mac1609_4 retriesExceeded:count 0
attr source org_car2x_veins_modules_mac_sigRetriesExceeded
scalar RSUExampleScenario.node[115].nic.mac1609_4 sentAcks:count 0
attr source org_car2x_veins_modules_mac_sigSentAck
scalar RSUExampleScenario.node[115].nic.mac1609_4 sentPackets:count 81
attr source org_car2x_veins_modules_mac_sigSentPacket
scalar RSUExampleScenario.node[115].nic.mac1609_4 collisions:count 0
attr source org_car2x_veins_modules_mac_sigCollision
scalar RSUExampleScenario.node[115].nic.mac1609_4 channelBusy:timeavg 0.11299765432098
attr source org_car2x_veins_modules_mac_sigChannelBusy
scalar RSUExampleScenario.node[115].veinsmobility startTime 111.9
scalar RSUExampleScenario.node[115].veinsmobility totalTime 8.1
scalar RSUExampleScenario.node[115].veinsmobility stopTime 120
scalar RSUExampleScenario.node[115].veinsmobility minSpeed 2.3243287119583
scalar RSUExampleScenario.node[115].veinsmobility maxSpeed 6.2486925183735
scalar RSUExampleScenario.node[115].veinsmobility totalDistance 41.045077971767
scalar RSUExampleScenario.node[115].veinsmobility totalCO2Emission 15.365354433946
scalar RSUExampleScenario.node[116].appl generatedWSMs 0
scalar RSUExampleScenario.node[116].appl receivedWSMs 0
scalar RSUExampleScenario.node[116].appl generatedBSMs 67
scalar RSUExampleScenario.node[116].appl receivedBSMs 4487
scalar RSUExampleScenario.node[116].appl generatedWSAs 0
scalar RSUExampleScenario.node[116].appl receivedWSAs 0
scalar RSUExampleScenario.node[116].nic.phy80211p busyTime 0.11348417910447
scalar RSUExampleScenario.node[116].nic.mac1609_4 ReceivedUnicastPackets 0
scalar RSUExampleScenario.node[116].nic.mac1609_4 ReceivedBroadcasts 4487
scalar RSUExampleScenario.node[116].nic.mac1609_4 SentPackets 67
scalar RSUExampleScenario.node[116].nic.mac1609_4 SentAcknowledgements 0
scalar RSUExampleScenario.node[116].nic.mac1609_4 RetriesExceeded 0
scalar RSUExampleScenario.node[116].nic.mac1609_4 SNIRLostPackets 2824
scalar RSUExampleScenario.node[116].nic.mac1609_4 RXTXLostPackets 0
scalar RSUExampleScenario.node[116].nic.mac1609_4 TotalLostPackets 2824
scalar RSUExampleScenario.node[116].nic.mac1609_4 DroppedPacketsInMac 0
scalar RSUExampleScenario.node[116].nic.mac1609_4 TooLittleTime 0
scalar RSUExampleScenario.node[116].nic.mac1609_4 TimesIntoBackoff 67
scalar RSUExampleScenario.node[116].nic.mac1609_4 SlotsBackoff 95
scalar RSUExampleScenario.node[116].nic.mac1609_4 NumInternalContention 0
scalar RSUExampleScenario.node[116].nic.mac1609_4 totalBusyTime 0.757395
scalar RSUExampleScenario.node[116].nic.mac1609_4 retriesExceeded:count 0
attr source org_car2x_veins_modules_mac_sigRetriesExceeded
scalar RSUExampleScenario.node[116].nic.mac1609_4 sentAcks:count 0
attr source org_car2x_veins_modules_mac_sigSentAck
scalar RSUExampleScenario.node[116].nic.mac1609_4 sentPackets:count 67
attr source org_car2x_veins_modules_mac_sigSentPacket
scalar RSUExampleScenario.node[116].nic.mac1609_4 collisions:count 0
attr source org_car2x_veins_modules_mac_sigCollision
scalar RSUExampleScenario.node[116].nic.mac1609_4 channelBusy:timeavg 0.11304402985074
attr source org_car2x_veins_modules_mac_sigChannelBusy
scalar RSUExampleScenario.node[116].veinsmobility startTime 113.3
scalar RSUExampleScenario.node[116].veinsmobility totalTime 6.7
scalar RSUExampleScenario.node[116].veinsmobility stopTime 120
scalar RSUExampleScenario.node[116].veinsmobility minSpeed 2.6233841851267
scalar RSUExampleScenario.node[116].veinsmobility maxSpeed 6.3311669481743
scalar RSUExampleScenario.node[116].veinsmobility totalDistance 34.069624068779
scalar RSUExampleScenario.node[116].veinsmobility totalCO2Emission 13.596927844981
scalar RSUExampleScenario.node[117].appl generatedWSMs 0
scalar RSUExampleScenario.node[117].appl receivedWSMs 0
scalar RSUExampleScenario.node[117].appl generatedBSMs 60
scalar RSUExampleScenario.node[117].appl receivedBSMs 4226
scalar RSUExampleScenario.node[117].appl generatedWSAs 0
scalar RSUExampleScenario.node[117].appl receivedWSAs 0
scalar RSUExampleScenario.node[117].nic.phy80211p busyTime 0.11349866666666
scalar RSUExampleScenario.node[117].nic.mac1609_4 ReceivedUnicastPackets 0
scalar RSUExampleScenario.node[117].nic.mac1609_4 ReceivedBroadcasts 4226
scalar RSUExampleScenario.node[117].nic.mac1609_4 SentPackets 60
scalar RSUExampleScenario.node[117].nic.mac1609_4 SentAcknowledgements 0
scalar RSUExampleScenario.node[117].nic.mac1609_4 RetriesExceeded 0
scalar RSUExampleScenario.node[117].nic.mac1609_4 SNIRLostPackets 2322
scalar RSUExampleScenario.node[117].nic.mac1609_4 RXTXLostPackets 0
scalar RSUExampleScenario.node[117].nic.mac1609_4 TotalLostPackets 2322
scalar RSUExampleScenario.node[117].nic.mac1609_4 DroppedPacketsInMac 0
scalar RSUExampleScenario.node[117].nic.mac1609_4 TooLittleTime 0
scalar RSUExampleScenario.node[117].nic.mac1609_4 TimesIntoBackoff 60
scalar RSUExampleScenario.node[117].nic.mac1609_4 SlotsBackoff 92
scalar RSUExampleScenario.node[117].nic.mac1609_4 NumInternalContention 0
scalar RSUExampleScenario.node[117].nic.mac1609_4 totalBusyTime 0.678036
scalar RSUExampleScenario.node[117].nic.mac1609_4 retriesExceeded:count 0
attr source org_car2x_veins_modules_mac_sigRetriesExceeded
scalar RSUExampleScenario.node[117].nic.mac1609_4 sentAcks:count 0
attr source org_car2x_veins_modules_mac_sigSentAck
scalar RSUExampleScenario.node[117].nic.mac1609_4 sentPackets:count 60
attr source org_car2x_veins_modules_mac_sigSentPacket
scalar RSUExampleScenario.node[117].nic.mac1609_4 collisions:count 0
attr source org_car2x_veins_modules_mac_sigCollision
scalar RSUExampleScenario.node[117].nic.mac1609_4 channelBusy:timeavg 0.11300599999999
attr source org_car2x_veins_modules_mac_sigChannelBusy
scalar RSUExampleScenario.node[117].veinsmobility startTime 114
scalar RSUExampleScenario.node[117].veinsmobility totalTime 6
scalar RSUExampleScenario.node[117].veinsmobility stopTime 120
scalar RSUExampleScenario.node[117].veinsmobility minSpeed 2.2400227327012
scalar RSUExampleScenario.node[117].veinsmobility maxSpeed 5.8721663850035
scalar RSUExampleScenario.node[117].veinsmobility totalDistance 28.111919223361
scalar RSUExampleScenario.node[117].veinsmobility totalCO2Emission 11.789314329978
scalar RSUExampleScenario.node[118].appl generatedWSMs 0
scalar RSUExampleScenario.node[118].appl receivedWSMs 0
scalar RSUExampleScenario.node[118].appl generatedBSMs 47
scalar RSUExampleScenario.node[118].appl receivedBSMs 3106
scalar RSUExampleScenario.node[118].appl generatedWSAs 0
scalar RSUExampleScenario.node[118].appl receivedWSAs 0
scalar RSUExampleScenario.node[118].nic.phy80211p busyTime 0.11342638297872
scalar RSUExampleScenario.node[118].nic.mac1609_4 ReceivedUnicastPackets 0
scalar RSUExampleScenario.node[118].nic.mac1609_4 ReceivedBroadcasts 3106
scalar RSUExampleScenario.node[118].nic.mac1609_4 SentPackets 47
scalar RSUExampleScenario.node[118].nic.mac1609_4 SentAcknowledgements 0
scalar RSUExampleScenario.node[118].nic.mac1609_4 RetriesExceeded 0
scalar RSUExampleScenario.node[118].nic.mac1609_4 SNIRLostPackets 2020
scalar RSUExampleScenario.node[118].nic.mac1609_4 RXTXLostPackets 0
scalar RSUExampleScenario.node[118].nic.mac1609_4 TotalLostPackets 2020
scalar RSUExampleScenario.node[118].nic.mac1609_4 DroppedPacketsInMac 0
scalar RSUExampleScenario.node[118].nic.mac1609_4 TooLittleTime 0
scalar RSUExampleScenario.node[118].nic.mac1609_4 TimesIntoBackoff 47
scalar RSUExampleScenario.node[118].nic.mac1609_4 SlotsBackoff 62
scalar RSUExampleScenario.node[118].nic.mac1609_4 NumInternalContention 0
scalar RSUExampleScenario.node[118].nic.mac1609_4 totalBusyTime 0.530759
scalar RSUExampleScenario.node[118].nic.mac1609_4 retriesExceeded:count 0
attr source org_car2x_veins_modules_mac_sigRetriesExceeded
scalar RSUExampleScenario.node[118].nic.mac1609_4 sentAcks:count 0
attr source org_car2x_veins_modules_mac_sigSentAck
scalar RSUExampleScenario.node[118].nic.mac1609_4 sentPackets:count 47
attr source org_car2x_veins_modules_mac_sigSentPacket
scalar RSUExampleScenario.node[118].nic.mac1609_4 collisions:count 0
attr source org_car2x_veins_modules_mac_sigCollision
scalar RSUExampleScenario.node[118].nic.mac1609_4 channelBusy:timeavg 0.11292744680851
attr source org_car2x_veins_modules_mac_sigChannelBusy
scalar RSUExampleScenario.node[118].veinsmobility startTime 115.3
scalar RSUExampleScenario.node[118].veinsmobility totalTime 4.7
scalar RSUExampleScenario.node[118].veinsmobility stopTime 120
scalar RSUExampleScenario.node[118].veinsmobility minSpeed 2.3530423282476
scalar RSUExampleScenario.node[118].veinsmobility maxSpeed 5.8160038712337
scalar RSUExampleScenario.node[118].veinsmobility totalDistance 21.482373847366
scalar RSUExampleScenario.node[118].veinsmobility totalCO2Emission 9.6174239184408
scalar RSUExampleScenario.node[119].appl generatedWSMs 0
scalar RSUExampleScenario.node[119].appl receivedWSMs 0
scalar RSUExampleScenario.node[119].appl generatedBSMs 38
scalar RSUExampleScenario.node[119].appl receivedBSMs 2657
scalar RSUExampleScenario.node[119].appl generatedWSAs 0
scalar RSUExampleScenario.node[119].appl receivedWSAs 0
scalar RSUExampleScenario.node[119].nic.phy80211p busyTime 0.11333263157894
scalar RSUExampleScenario.node[119].nic.mac1609_4 ReceivedUnicastPackets 0
scalar RSUExampleScenario.node[119].nic.mac1609_4 ReceivedBroadcasts 2657
scalar RSUExampleScenario.node[119].nic.mac1609_4 SentPackets 38
scalar RSUExampleScenario.node[119].nic.mac1609_4 SentAcknowledgements 0
scalar RSUExampleScenario.node[119].nic.mac1609_4 RetriesExceeded 0
scalar RSUExampleScenario.node[119].nic.mac1609_4 SNIRLostPackets 1484
scalar RSUExampleScenario.node[119].nic.mac1609_4 RXTXLostPackets 0
scalar RSUExampleScenario.node[119].nic.mac1609_4 TotalLostPackets 1484
scalar RSUExampleScenario.node[119].nic.mac1609_4 DroppedPacketsInMac 0
scalar RSUExampleScenario.node[119].nic.mac1609_4 TooLittleTime 0
scalar RSUExampleScenario.node[119].nic.mac1609_4 TimesIntoBackoff 38
scalar RSUExampleScenario.node[119].nic.mac1609_4 SlotsBackoff 52
scalar RSUExampleScenario.node[119].nic.mac1609_4 NumInternalContention 0
scalar RSUExampleScenario.node[119].nic.mac1609_4 totalBusyTime 0.428934
scalar RSUExampleScenario.node[119].nic.mac1609_4 retriesExceeded:count 0
attr source org_car2x_veins_modules_mac_sigRetriesExceeded
scalar RSUExampleScenario.node[119].nic.mac1609_4 sentAcks:count 0
attr source org_car2x_veins_modules_mac_sigSentAck
scalar RSUExampleScenario.node[119].nic.mac1609_4 sentPackets:count 38
attr source org_car2x_veins_modules_mac_sigSentPacket
scalar RSUExampleScenario.node[119].nic.mac1609_4 collisions:count 0
attr source org_car2x_veins_modules_mac_sigCollision
scalar RSUExampleScenario.node[119].nic.mac1609_4 channelBusy:timeavg 0.11287736842105
attr source org_car2x_veins_modules_mac_sigChannelBusy
scalar RSUExampleScenario.node[119].veinsmobility startTime 116.2
scalar RSUExampleScenario.node[119].veinsmobility totalTime 3.8
scalar RSUExampleScenario.node[119].veinsmobility stopTime 120
scalar RSUExampleScenario.node[119].veinsmobility minSpeed 2.4471642451084
scalar RSUExampleScenario.node[119].veinsmobility maxSpeed 5.3461104923264
scalar RSUExampleScenario.node[119].veinsmobility totalDistance 16.0765005817
scalar RSUExampleScenario.node[119].veinsmobility totalCO2Emission 7.8240308284088
scalar RSUExampleScenario.node[120].appl generatedWSMs 0
scalar RSUExampleScenario.node[120].appl receivedWSMs 0
scalar RSUExampleScenario.node[120].appl generatedBSMs 26
scalar RSUExampleScenario.node[120].appl receivedBSMs 1707
scalar RSUExampleScenario.node[120].appl generatedWSAs 0
scalar RSUExampleScenario.node[120].appl receivedWSAs 0
scalar RSUExampleScenario.node[120].nic.phy80211p busyTime 0.11336
scalar RSUExampleScenario.node[120].nic.mac1609_4 ReceivedUnicastPackets 0
scalar RSUExampleScenario.node[120].nic.mac1609_4 ReceivedBroadcasts 1707
scalar RSUExampleScenario.node[120].nic.mac1609_4 SentPackets 26
scalar RSUExampleScenario.node[120].nic.mac1609_4 SentAcknowledgements 0
scalar RSUExampleScenario.node[120].nic.mac1609_4 RetriesExceeded 0
scalar RSUExampleScenario.node[120].nic.mac1609_4 SNIRLostPackets 1127
scalar RSUExampleScenario.node[120].nic.mac1609_4 RXTXLostPackets 0
scalar RSUExampleScenario.node[120].nic.mac1609_4 TotalLostPackets 1127
scalar RSUExampleScenario.node[120].nic.mac1609_4 DroppedPacketsInMac 0
scalar RSUExampleScenario.node[120].nic.mac1609_4 TooLittleTime 0
scalar RSUExampleScenario.node[120].nic.mac1609_4 TimesIntoBackoff 26
scalar RSUExampleScenario.node[120].nic.mac1609_4 SlotsBackoff 41
scalar RSUExampleScenario.node[120].nic.mac1609_4 NumInternalContention 0
scalar RSUExampleScenario.node[120].nic.mac1609_4 totalBusyTime 0.29393
scalar RSUExampleScenario.node[120].nic.mac1609_4 retriesExceeded:count 0
attr source org_car2x_veins_modules_mac_sigRetriesExceeded
scalar RSUExampleScenario.node[120].nic.mac1609_4 sentAcks:count 0
attr source org_car2x_veins_modules_mac_sigSentAck
scalar RSUExampleScenario.node[120].nic.mac1609_4 sentPackets:count 26
attr source org_car2x_veins_modules_mac_sigSentPacket
scalar RSUExampleScenario.node[120].nic.mac1609_4 collisions:count 0
attr source org_car2x_veins_modules_mac_sigCollision
scalar RSUExampleScenario.node[120].nic.mac1609_4 channelBusy:timeavg 0.11305
attr source org_car2x_veins_modules_mac_sigChannelBusy
scalar RSUExampleScenario.node[120].veinsmobility startTime 117.4
scalar RSUExampleScenario.node[120].veinsmobility totalTime 2.6
scalar RSUExampleScenario.node[120].veinsmobility stopTime 120
scalar RSUExampleScenario.node[120].veinsmobility minSpeed 2.5369048747317
scalar RSUExampleScenario.node[120].veinsmobility maxSpeed 4.9801598391534
scalar RSUExampleScenario.node[120].veinsmobility totalDistance 10.199417130705
scalar RSUExampleScenario.node[120].veinsmobility totalCO2Emission 5.5602490358816
scalar RSUExampleScenario.node[121].appl generatedWSMs 0
scalar RSUExampleScenario.node[121].appl receivedWSMs 0
scalar RSUExampleScenario.node[121].appl generatedBSMs 17
scalar RSUExampleScenario.node[121].appl receivedBSMs 1189
scalar RSUExampleScenario.node[121].appl generatedWSAs 0
scalar RSUExampleScenario.node[121].appl receivedWSAs 0
scalar RSUExampleScenario.node[121].nic.phy80211p busyTime 0.11366588235294
scalar RSUExampleScenario.node[121].nic.mac1609_4 ReceivedUnicastPackets 0
scalar RSUExampleScenario.node[121].nic.mac1609_4 ReceivedBroadcasts 1189
scalar RSUExampleScenario.node[121].nic.mac1609_4 SentPackets 17
scalar RSUExampleScenario.node[121].nic.mac1609_4 SentAcknowledgements 0
scalar RSUExampleScenario.node[121].nic.mac1609_4 RetriesExceeded 0
scalar RSUExampleScenario.node[121].nic.mac1609_4 SNIRLostPackets 669
scalar RSUExampleScenario.node[121].nic.mac1609_4 RXTXLostPackets 0
scalar RSUExampleScenario.node[121].nic.mac1609_4 TotalLostPackets 669
scalar RSUExampleScenario.node[121].nic.mac1609_4 DroppedPacketsInMac 0
scalar RSUExampleScenario.node[121].nic.mac1609_4 TooLittleTime 0
scalar RSUExampleScenario.node[121].nic.mac1609_4 TimesIntoBackoff 17
scalar RSUExampleScenario.node[121].nic.mac1609_4 SlotsBackoff 28
scalar RSUExampleScenario.node[121].nic.mac1609_4 NumInternalContention 0
scalar RSUExampleScenario.node[121].nic.mac1609_4 totalBusyTime 0.192521
scalar RSUExampleScenario.node[121].nic.mac1609_4 retriesExceeded:count 0
attr source org_car2x_veins_modules_mac_sigRetriesExceeded
scalar RSUExampleScenario.node[121].nic.mac1609_4 sentAcks:count 0
attr source org_car2x_veins_modules_mac_sigSentAck
scalar RSUExampleScenario.node[121].nic.mac1609_4 sentPackets:count 17
attr source org_car2x_veins_modules_mac_sigSentPacket
scalar RSUExampleScenario.node[121].nic.mac1609_4 collisions:count 0
attr source org_car2x_veins_modules_mac_sigCollision
scalar RSUExampleScenario.node[121].nic.mac1609_4 channelBusy:timeavg 0.11324764705882
attr source org_car2x_veins_modules_mac_sigChannelBusy
scalar RSUExampleScenario.node[121].veinsmobility startTime 118.3
scalar RSUExampleScenario.node[121].veinsmobility totalTime 1.7
scalar RSUExampleScenario.node[121].veinsmobility stopTime 120
scalar RSUExampleScenario.node[121].veinsmobility minSpeed 2.4027294178569
scalar RSUExampleScenario.node[121].veinsmobility maxSpeed 4.2819488881461
scalar RSUExampleScenario.node[121].veinsmobility totalDistance 5.7722363324581
scalar RSUExampleScenario.node[121].veinsmobility totalCO2Emission 3.5940322916584
scalar RSUExampleScenario.node[122].appl generatedWSMs 0
scalar RSUExampleScenario.node[122].appl receivedWSMs 0
scalar RSUExampleScenario.node[122].appl generatedBSMs 5
scalar RSUExampleScenario.node[122].appl receivedBSMs 333
scalar RSUExampleScenario.node[122].appl generatedWSAs 0
scalar RSUExampleScenario.node[122].appl receivedWSAs 0
scalar RSUExampleScenario.node[122].nic.phy80211p busyTime 0.1144
scalar RSUExampleScenario.node[122].nic.mac1609_4 ReceivedUnicastPackets 0
scalar RSUExampleScenario.node[122].nic.mac1609_4 ReceivedBroadcasts 333
scalar RSUExampleScenario.node[122].nic.mac1609_4 SentPackets 5
scalar RSUExampleScenario.node[122].nic.mac1609_4 SentAcknowledgements 0
scalar RSUExampleScenario.node[122].nic.mac1609_4 RetriesExceeded 0
scalar RSUExampleScenario.node[122].nic.mac1609_4 SNIRLostPackets 217
scalar RSUExampleScenario.node[122].nic.mac1609_4 RXTXLostPackets 0
scalar RSUExampleScenario.node[122].nic.mac1609_4 TotalLostPackets 217
scalar RSUExampleScenario.node[122].nic.mac1609_4 DroppedPacketsInMac 0
scalar RSUExampleScenario.node[122].nic.mac1609_4 TooLittleTime 0
scalar RSUExampleScenario.node[122].nic.mac1609_4 TimesIntoBackoff 5
scalar RSUExampleScenario.node[122].nic.mac1609_4 SlotsBackoff 7
scalar RSUExampleScenario.node[122].nic.mac1609_4 NumInternalContention 0
scalar RSUExampleScenario.node[122].nic.mac1609_4 totalBusyTime 0.057205
scalar RSUExampleScenario.node[122].nic.mac1609_4 retriesExceeded:count 0
attr source org_car2x_veins_modules_mac_sigRetriesExceeded
scalar RSUExampleScenario.node[122].nic.mac1609_4 sentAcks:count 0
attr source org_car2x_veins_modules_mac_sigSentAck
scalar RSUExampleScenario.node[122].nic.mac1609_4 sentPackets:count 5
attr source org_car2x_veins_modules_mac_sigSentPacket
scalar RSUExampleScenario.node[122].nic.mac1609_4 collisions:count 0
attr source org_car2x_veins_modules_mac_sigCollision
scalar RSUExampleScenario.node[122].nic.mac1609_4 channelBusy:timeavg 0.11441
attr source org_car2x_veins_modules_mac_sigChannelBusy
scalar RSUExampleScenario.node[122].veinsmobility startTime 119.5
scalar RSUExampleScenario.node[122].veinsmobility totalTime 0.5
scalar RSUExampleScenario.node[122].veinsmobility stopTime 120
scalar RSUExampleScenario.node[122].veinsmobility minSpeed 2.5001985240762
scalar RSUExampleScenario.node[122].veinsmobility maxSpeed 3.1542629646256
scalar RSUExampleScenario.node[122].veinsmobility totalDistance 1.423787202502
scalar RSUExampleScenario.node[122].veinsmobility totalCO2Emission 0.96136641140326

