version 2
run WithBeaconing-0-20251015-16:01:14-5328
attr configname WithBeaconing
attr datetime 20251015-16:01:14
attr experiment WithBeaconing
attr inifile omnetpp.ini
attr iterationvars ""
attr iterationvarsf ""
attr measurement ""
attr network RSUExampleScenario
attr processid 5328
attr repetition 0
attr replication #0
attr resultdir results
attr runnumber 0
attr seedset 210041226
param *.node[*].appl.sendBeacons true
param *.playgroundSizeX 1700m
param *.playgroundSizeY 1700m
param *.playgroundSizeZ 50m
param *.annotations.draw true
param *.manager.updateInterval 0.1s
param *.manager.host "\"localhost\""
param *.manager.port 9999
param *.manager.autoShutdown true
param *.manager.launchConfig "xmldoc(\"simulation_junction.launchd.xml\")"
param *.connectionManager.sendDirect true
param *.connectionManager.maxInterfDist 2600m
param *.connectionManager.drawMaxIntfDist false
param *.**.nic.mac1609_4.useServiceChannel false
param *.**.nic.mac1609_4.txPower 20mW
param *.**.nic.mac1609_4.bitrate 6Mbps
param *.**.nic.phy80211p.minPowerLevel -110dBm
param *.**.nic.phy80211p.useNoiseFloor true
param *.**.nic.phy80211p.noiseFloor -98dBm
param *.**.nic.phy80211p.decider "xmldoc(\"config.xml\")"
param *.**.nic.phy80211p.analogueModels "xmldoc(\"config.xml\")"
param *.**.nic.phy80211p.usePropagationDelay true
param *.**.nic.phy80211p.antenna "xmldoc(\"antenna.xml\", \"/root/Antenna[@id='monopole']\")"
param *.node[*].nic.phy80211p.antennaOffsetY "0 m"
param *.node[*].nic.phy80211p.antennaOffsetZ "1.895 m"
param *.node[*].applType "\"TraCIDemo11p\""
param *.node[*].appl.headerLength "80 bit"
param *.node[*].appl.sendBeacons false
param *.node[*].appl.dataOnSch false
param *.node[*].appl.beaconInterval 0.1s
param **.node[*].appl.dataUserPriority 5
param **.node[*].appl.beaconUserPriority 7
param *.node[*].veinsmobility.x 0
param *.node[*].veinsmobility.y 0
param *.node[*].veinsmobility.z 0
param *.node[*].veinsmobility.setHostSpeed false

scalar RSUExampleScenario.node[0].appl generatedWSMs 1
scalar RSUExampleScenario.node[0].appl receivedWSMs 75
scalar RSUExampleScenario.node[0].appl generatedBSMs 944
scalar RSUExampleScenario.node[0].appl receivedBSMs 41934
scalar RSUExampleScenario.node[0].appl generatedWSAs 0
scalar RSUExampleScenario.node[0].appl receivedWSAs 0
scalar RSUExampleScenario.node[0].nic.phy80211p busyTime 0.050808220338995
scalar RSUExampleScenario.node[0].nic.mac1609_4 ReceivedUnicastPackets 0
scalar RSUExampleScenario.node[0].nic.mac1609_4 ReceivedBroadcasts 42009
scalar RSUExampleScenario.node[0].nic.mac1609_4 SentPackets 945
scalar RSUExampleScenario.node[0].nic.mac1609_4 SentAcknowledgements 0
scalar RSUExampleScenario.node[0].nic.mac1609_4 RetriesExceeded 0
scalar RSUExampleScenario.node[0].nic.mac1609_4 SNIRLostPackets 3996
scalar RSUExampleScenario.node[0].nic.mac1609_4 RXTXLostPackets 0
scalar RSUExampleScenario.node[0].nic.mac1609_4 TotalLostPackets 3996
scalar RSUExampleScenario.node[0].nic.mac1609_4 DroppedPacketsInMac 0
scalar RSUExampleScenario.node[0].nic.mac1609_4 TooLittleTime 0
scalar RSUExampleScenario.node[0].nic.mac1609_4 TimesIntoBackoff 945
scalar RSUExampleScenario.node[0].nic.mac1609_4 SlotsBackoff 1461
scalar RSUExampleScenario.node[0].nic.mac1609_4 NumInternalContention 0
scalar RSUExampleScenario.node[0].nic.mac1609_4 totalBusyTime 4.865489
scalar RSUExampleScenario.node[0].nic.mac1609_4 retriesExceeded:count 0
attr source org_car2x_veins_modules_mac_sigRetriesExceeded
scalar RSUExampleScenario.node[0].nic.mac1609_4 sentAcks:count 0
attr source org_car2x_veins_modules_mac_sigSentAck
scalar RSUExampleScenario.node[0].nic.mac1609_4 sentPackets:count 945
attr source org_car2x_veins_modules_mac_sigSentPacket
scalar RSUExampleScenario.node[0].nic.mac1609_4 collisions:count 0
attr source org_car2x_veins_modules_mac_sigCollision
scalar RSUExampleScenario.node[0].nic.mac1609_4 channelBusy:timeavg 0.051541197033912
attr source org_car2x_veins_modules_mac_sigChannelBusy
scalar RSUExampleScenario.node[0].veinsmobility startTime 0.1
scalar RSUExampleScenario.node[0].veinsmobility totalTime 94.3
scalar RSUExampleScenario.node[0].veinsmobility stopTime 94.5
scalar RSUExampleScenario.node[0].veinsmobility minSpeed 0
scalar RSUExampleScenario.node[0].veinsmobility maxSpeed 11.162199017605
scalar RSUExampleScenario.node[0].veinsmobility totalDistance 747.03887334809
scalar RSUExampleScenario.node[0].veinsmobility totalCO2Emission 208.10618769037
scalar RSUExampleScenario.node[1].appl generatedWSMs 1
scalar RSUExampleScenario.node[1].appl receivedWSMs 78
scalar RSUExampleScenario.node[1].appl generatedBSMs 969
scalar RSUExampleScenario.node[1].appl receivedBSMs 44133
scalar RSUExampleScenario.node[1].appl generatedWSAs 0
scalar RSUExampleScenario.node[1].appl receivedWSAs 0
scalar RSUExampleScenario.node[1].nic.phy80211p busyTime 0.052111537667719
scalar RSUExampleScenario.node[1].nic.mac1609_4 ReceivedUnicastPackets 0
scalar RSUExampleScenario.node[1].nic.mac1609_4 ReceivedBroadcasts 44211
scalar RSUExampleScenario.node[1].nic.mac1609_4 SentPackets 970
scalar RSUExampleScenario.node[1].nic.mac1609_4 SentAcknowledgements 0
scalar RSUExampleScenario.node[1].nic.mac1609_4 RetriesExceeded 0
scalar RSUExampleScenario.node[1].nic.mac1609_4 SNIRLostPackets 4226
scalar RSUExampleScenario.node[1].nic.mac1609_4 RXTXLostPackets 0
scalar RSUExampleScenario.node[1].nic.mac1609_4 TotalLostPackets 4226
scalar RSUExampleScenario.node[1].nic.mac1609_4 DroppedPacketsInMac 0
scalar RSUExampleScenario.node[1].nic.mac1609_4 TooLittleTime 0
scalar RSUExampleScenario.node[1].nic.mac1609_4 TimesIntoBackoff 970
scalar RSUExampleScenario.node[1].nic.mac1609_4 SlotsBackoff 1452
scalar RSUExampleScenario.node[1].nic.mac1609_4 NumInternalContention 0
scalar RSUExampleScenario.node[1].nic.mac1609_4 totalBusyTime 5.118906
scalar RSUExampleScenario.node[1].nic.mac1609_4 retriesExceeded:count 0
attr source org_car2x_veins_modules_mac_sigRetriesExceeded
scalar RSUExampleScenario.node[1].nic.mac1609_4 sentAcks:count 0
attr source org_car2x_veins_modules_mac_sigSentAck
scalar RSUExampleScenario.node[1].nic.mac1609_4 sentPackets:count 970
attr source org_car2x_veins_modules_mac_sigSentPacket
scalar RSUExampleScenario.node[1].nic.mac1609_4 collisions:count 0
attr source org_car2x_veins_modules_mac_sigCollision
scalar RSUExampleScenario.node[1].nic.mac1609_4 channelBusy:timeavg 0.052826687306523
attr source org_car2x_veins_modules_mac_sigChannelBusy
scalar RSUExampleScenario.node[1].veinsmobility startTime 0.1
scalar RSUExampleScenario.node[1].veinsmobility totalTime 96.8
scalar RSUExampleScenario.node[1].veinsmobility stopTime 97
scalar RSUExampleScenario.node[1].veinsmobility minSpeed 0
scalar RSUExampleScenario.node[1].veinsmobility maxSpeed 10.483306091994
scalar RSUExampleScenario.node[1].veinsmobility totalDistance 749.03814954971
scalar RSUExampleScenario.node[1].veinsmobility totalCO2Emission 206.63278717211
scalar RSUExampleScenario.node[3].appl generatedWSMs 1
scalar RSUExampleScenario.node[3].appl receivedWSMs 82
scalar RSUExampleScenario.node[3].appl generatedBSMs 995
scalar RSUExampleScenario.node[3].appl receivedBSMs 46887
scalar RSUExampleScenario.node[3].appl generatedWSAs 0
scalar RSUExampleScenario.node[3].appl receivedWSAs 0
scalar RSUExampleScenario.node[3].nic.phy80211p busyTime 0.05454231155782
scalar RSUExampleScenario.node[3].nic.mac1609_4 ReceivedUnicastPackets 0
scalar RSUExampleScenario.node[3].nic.mac1609_4 ReceivedBroadcasts 46969
scalar RSUExampleScenario.node[3].nic.mac1609_4 SentPackets 996
scalar RSUExampleScenario.node[3].nic.mac1609_4 SentAcknowledgements 0
scalar RSUExampleScenario.node[3].nic.mac1609_4 RetriesExceeded 0
scalar RSUExampleScenario.node[3].nic.mac1609_4 SNIRLostPackets 5089
scalar RSUExampleScenario.node[3].nic.mac1609_4 RXTXLostPackets 0
scalar RSUExampleScenario.node[3].nic.mac1609_4 TotalLostPackets 5089
scalar RSUExampleScenario.node[3].nic.mac1609_4 DroppedPacketsInMac 0
scalar RSUExampleScenario.node[3].nic.mac1609_4 TooLittleTime 0
scalar RSUExampleScenario.node[3].nic.mac1609_4 TimesIntoBackoff 996
scalar RSUExampleScenario.node[3].nic.mac1609_4 SlotsBackoff 1499
scalar RSUExampleScenario.node[3].nic.mac1609_4 NumInternalContention 0
scalar RSUExampleScenario.node[3].nic.mac1609_4 totalBusyTime 5.493708
scalar RSUExampleScenario.node[3].nic.mac1609_4 retriesExceeded:count 0
attr source org_car2x_veins_modules_mac_sigRetriesExceeded
scalar RSUExampleScenario.node[3].nic.mac1609_4 sentAcks:count 0
attr source org_car2x_veins_modules_mac_sigSentAck
scalar RSUExampleScenario.node[3].nic.mac1609_4 sentPackets:count 996
attr source org_car2x_veins_modules_mac_sigSentPacket
scalar RSUExampleScenario.node[3].nic.mac1609_4 collisions:count 0
attr source org_car2x_veins_modules_mac_sigCollision
scalar RSUExampleScenario.node[3].nic.mac1609_4 channelBusy:timeavg 0.055213145728676
attr source org_car2x_veins_modules_mac_sigChannelBusy
scalar RSUExampleScenario.node[3].veinsmobility startTime 1.1
scalar RSUExampleScenario.node[3].veinsmobility totalTime 99.4
scalar RSUExampleScenario.node[3].veinsmobility stopTime 100.6
scalar RSUExampleScenario.node[3].veinsmobility minSpeed 0
scalar RSUExampleScenario.node[3].veinsmobility maxSpeed 10.152789190569
scalar RSUExampleScenario.node[3].veinsmobility totalDistance 747.05792822768
scalar RSUExampleScenario.node[3].veinsmobility totalCO2Emission 211.09443827162
scalar RSUExampleScenario.node[5].appl generatedWSMs 1
scalar RSUExampleScenario.node[5].appl receivedWSMs 86
scalar RSUExampleScenario.node[5].appl generatedBSMs 1001
scalar RSUExampleScenario.node[5].appl receivedBSMs 48334
scalar RSUExampleScenario.node[5].appl generatedWSAs 0
scalar RSUExampleScenario.node[5].appl receivedWSAs 0
scalar RSUExampleScenario.node[5].nic.phy80211p busyTime 0.055894825174862
scalar RSUExampleScenario.node[5].nic.mac1609_4 ReceivedUnicastPackets 0
scalar RSUExampleScenario.node[5].nic.mac1609_4 ReceivedBroadcasts 48420
scalar RSUExampleScenario.node[5].nic.mac1609_4 SentPackets 1002
scalar RSUExampleScenario.node[5].nic.mac1609_4 SentAcknowledgements 0
scalar RSUExampleScenario.node[5].nic.mac1609_4 RetriesExceeded 0
scalar RSUExampleScenario.node[5].nic.mac1609_4 SNIRLostPackets 5252
scalar RSUExampleScenario.node[5].nic.mac1609_4 RXTXLostPackets 0
scalar RSUExampleScenario.node[5].nic.mac1609_4 TotalLostPackets 5252
scalar RSUExampleScenario.node[5].nic.mac1609_4 DroppedPacketsInMac 0
scalar RSUExampleScenario.node[5].nic.mac1609_4 TooLittleTime 0
scalar RSUExampleScenario.node[5].nic.mac1609_4 TimesIntoBackoff 1003
scalar RSUExampleScenario.node[5].nic.mac1609_4 SlotsBackoff 1443
scalar RSUExampleScenario.node[5].nic.mac1609_4 NumInternalContention 0
scalar RSUExampleScenario.node[5].nic.mac1609_4 totalBusyTime 5.659122158587
scalar RSUExampleScenario.node[5].nic.mac1609_4 retriesExceeded:count 0
attr source org_car2x_veins_modules_mac_sigRetriesExceeded
scalar RSUExampleScenario.node[5].nic.mac1609_4 sentAcks:count 0
attr source org_car2x_veins_modules_mac_sigSentAck
scalar RSUExampleScenario.node[5].nic.mac1609_4 sentPackets:count 1002
attr source org_car2x_veins_modules_mac_sigSentPacket
scalar RSUExampleScenario.node[5].nic.mac1609_4 collisions:count 0
attr source org_car2x_veins_modules_mac_sigCollision
scalar RSUExampleScenario.node[5].nic.mac1609_4 channelBusy:timeavg 0.056534686899009
attr source org_car2x_veins_modules_mac_sigChannelBusy
scalar RSUExampleScenario.node[5].veinsmobility startTime 2.1
scalar RSUExampleScenario.node[5].veinsmobility totalTime 100
scalar RSUExampleScenario.node[5].veinsmobility stopTime 102.2
scalar RSUExampleScenario.node[5].veinsmobility minSpeed 0
scalar RSUExampleScenario.node[5].veinsmobility maxSpeed 11.547113351647
scalar RSUExampleScenario.node[5].veinsmobility totalDistance 746.86087446694
scalar RSUExampleScenario.node[5].veinsmobility totalCO2Emission 227.624366732
scalar RSUExampleScenario.node[7].appl generatedWSMs 1
scalar RSUExampleScenario.node[7].appl receivedWSMs 85
scalar RSUExampleScenario.node[7].appl generatedBSMs 1005
scalar RSUExampleScenario.node[7].appl receivedBSMs 49849
scalar RSUExampleScenario.node[7].appl generatedWSAs 0
scalar RSUExampleScenario.node[7].appl receivedWSAs 0
scalar RSUExampleScenario.node[7].nic.phy80211p busyTime 0.057233114427902
scalar RSUExampleScenario.node[7].nic.mac1609_4 ReceivedUnicastPackets 0
scalar RSUExampleScenario.node[7].nic.mac1609_4 ReceivedBroadcasts 49934
scalar RSUExampleScenario.node[7].nic.mac1609_4 SentPackets 1006
scalar RSUExampleScenario.node[7].nic.mac1609_4 SentAcknowledgements 0
scalar RSUExampleScenario.node[7].nic.mac1609_4 RetriesExceeded 0
scalar RSUExampleScenario.node[7].nic.mac1609_4 SNIRLostPackets 5245
scalar RSUExampleScenario.node[7].nic.mac1609_4 RXTXLostPackets 0
scalar RSUExampleScenario.node[7].nic.mac1609_4 TotalLostPackets 5245
scalar RSUExampleScenario.node[7].nic.mac1609_4 DroppedPacketsInMac 0
scalar RSUExampleScenario.node[7].nic.mac1609_4 TooLittleTime 0
scalar RSUExampleScenario.node[7].nic.mac1609_4 TimesIntoBackoff 1006
scalar RSUExampleScenario.node[7].nic.mac1609_4 SlotsBackoff 1504
scalar RSUExampleScenario.node[7].nic.mac1609_4 NumInternalContention 0
scalar RSUExampleScenario.node[7].nic.mac1609_4 totalBusyTime 5.813462
scalar RSUExampleScenario.node[7].nic.mac1609_4 retriesExceeded:count 0
attr source org_car2x_veins_modules_mac_sigRetriesExceeded
scalar RSUExampleScenario.node[7].nic.mac1609_4 sentAcks:count 0
attr source org_car2x_veins_modules_mac_sigSentAck
scalar RSUExampleScenario.node[7].nic.mac1609_4 sentPackets:count 1006
attr source org_car2x_veins_modules_mac_sigSentPacket
scalar RSUExampleScenario.node[7].nic.mac1609_4 collisions:count 0
attr source org_car2x_veins_modules_mac_sigCollision
scalar RSUExampleScenario.node[7].nic.mac1609_4 channelBusy:timeavg 0.057845393034868
attr source org_car2x_veins_modules_mac_sigChannelBusy
scalar RSUExampleScenario.node[7].veinsmobility startTime 3.2
scalar RSUExampleScenario.node[7].veinsmobility totalTime 100.4
scalar RSUExampleScenario.node[7].veinsmobility stopTime 103.7
scalar RSUExampleScenario.node[7].veinsmobility minSpeed 0
scalar RSUExampleScenario.node[7].veinsmobility maxSpeed 9.4537342059555
scalar RSUExampleScenario.node[7].veinsmobility totalDistance 748.83964916456
scalar RSUExampleScenario.node[7].veinsmobility totalCO2Emission 218.11565615712
scalar RSUExampleScenario.node[11].appl generatedWSMs 1
scalar RSUExampleScenario.node[11].appl receivedWSMs 89
scalar RSUExampleScenario.node[11].appl generatedBSMs 989
scalar RSUExampleScenario.node[11].appl receivedBSMs 51258
scalar RSUExampleScenario.node[11].appl generatedWSAs 0
scalar RSUExampleScenario.node[11].appl receivedWSAs 0
scalar RSUExampleScenario.node[11].nic.phy80211p busyTime 0.059759514661321
scalar RSUExampleScenario.node[11].nic.mac1609_4 ReceivedUnicastPackets 0
scalar RSUExampleScenario.node[11].nic.mac1609_4 ReceivedBroadcasts 51347
scalar RSUExampleScenario.node[11].nic.mac1609_4 SentPackets 990
scalar RSUExampleScenario.node[11].nic.mac1609_4 SentAcknowledgements 0
scalar RSUExampleScenario.node[11].nic.mac1609_4 RetriesExceeded 0
scalar RSUExampleScenario.node[11].nic.mac1609_4 SNIRLostPackets 5354
scalar RSUExampleScenario.node[11].nic.mac1609_4 RXTXLostPackets 1
scalar RSUExampleScenario.node[11].nic.mac1609_4 TotalLostPackets 5355
scalar RSUExampleScenario.node[11].nic.mac1609_4 DroppedPacketsInMac 0
scalar RSUExampleScenario.node[11].nic.mac1609_4 TooLittleTime 0
scalar RSUExampleScenario.node[11].nic.mac1609_4 TimesIntoBackoff 1763
scalar RSUExampleScenario.node[11].nic.mac1609_4 SlotsBackoff 2591
scalar RSUExampleScenario.node[11].nic.mac1609_4 NumInternalContention 0
scalar RSUExampleScenario.node[11].nic.mac1609_4 totalBusyTime 5.96739
scalar RSUExampleScenario.node[11].nic.mac1609_4 retriesExceeded:count 0
attr source org_car2x_veins_modules_mac_sigRetriesExceeded
scalar RSUExampleScenario.node[11].nic.mac1609_4 sentAcks:count 0
attr source org_car2x_veins_modules_mac_sigSentAck
scalar RSUExampleScenario.node[11].nic.mac1609_4 sentPackets:count 990
attr source org_car2x_veins_modules_mac_sigSentPacket
scalar RSUExampleScenario.node[11].nic.mac1609_4 collisions:count 0
attr source org_car2x_veins_modules_mac_sigCollision
scalar RSUExampleScenario.node[11].nic.mac1609_4 channelBusy:timeavg 0.060337613751311
attr source org_car2x_veins_modules_mac_sigChannelBusy
scalar RSUExampleScenario.node[11].veinsmobility startTime 6.5
scalar RSUExampleScenario.node[11].veinsmobility totalTime 98.8
scalar RSUExampleScenario.node[11].veinsmobility stopTime 105.4
scalar RSUExampleScenario.node[11].veinsmobility minSpeed 6.1960337632027e-05
scalar RSUExampleScenario.node[11].veinsmobility maxSpeed 11.684322867341
scalar RSUExampleScenario.node[11].veinsmobility totalDistance 748.56915379471
scalar RSUExampleScenario.node[11].veinsmobility totalCO2Emission 229.75935899066
scalar RSUExampleScenario.node[15].appl generatedWSMs 1
scalar RSUExampleScenario.node[15].appl receivedWSMs 91
scalar RSUExampleScenario.node[15].appl generatedBSMs 969
scalar RSUExampleScenario.node[15].appl receivedBSMs 52567
scalar RSUExampleScenario.node[15].appl generatedWSAs 0
scalar RSUExampleScenario.node[15].appl receivedWSAs 0
scalar RSUExampleScenario.node[15].nic.phy80211p busyTime 0.062668730650208
scalar RSUExampleScenario.node[15].nic.mac1609_4 ReceivedUnicastPackets 0
scalar RSUExampleScenario.node[15].nic.mac1609_4 ReceivedBroadcasts 52658
scalar RSUExampleScenario.node[15].nic.mac1609_4 SentPackets 970
scalar RSUExampleScenario.node[15].nic.mac1609_4 SentAcknowledgements 0
scalar RSUExampleScenario.node[15].nic.mac1609_4 RetriesExceeded 0
scalar RSUExampleScenario.node[15].nic.mac1609_4 SNIRLostPackets 5597
scalar RSUExampleScenario.node[15].nic.mac1609_4 RXTXLostPackets 0
scalar RSUExampleScenario.node[15].nic.mac1609_4 TotalLostPackets 5597
scalar RSUExampleScenario.node[15].nic.mac1609_4 DroppedPacketsInMac 0
scalar RSUExampleScenario.node[15].nic.mac1609_4 TooLittleTime 0
scalar RSUExampleScenario.node[15].nic.mac1609_4 TimesIntoBackoff 970
scalar RSUExampleScenario.node[15].nic.mac1609_4 SlotsBackoff 1464
scalar RSUExampleScenario.node[15].nic.mac1609_4 NumInternalContention 0
scalar RSUExampleScenario.node[15].nic.mac1609_4 totalBusyTime 6.123386
scalar RSUExampleScenario.node[15].nic.mac1609_4 retriesExceeded:count 0
attr source org_car2x_veins_modules_mac_sigRetriesExceeded
scalar RSUExampleScenario.node[15].nic.mac1609_4 sentAcks:count 0
attr source org_car2x_veins_modules_mac_sigSentAck
scalar RSUExampleScenario.node[15].nic.mac1609_4 sentPackets:count 970
attr source org_car2x_veins_modules_mac_sigSentPacket
scalar RSUExampleScenario.node[15].nic.mac1609_4 collisions:count 0
attr source org_car2x_veins_modules_mac_sigCollision
scalar RSUExampleScenario.node[15].nic.mac1609_4 channelBusy:timeavg 0.06319283797735
attr source org_car2x_veins_modules_mac_sigChannelBusy
scalar RSUExampleScenario.node[15].veinsmobility startTime 10.4
scalar RSUExampleScenario.node[15].veinsmobility totalTime 96.8
scalar RSUExampleScenario.node[15].veinsmobility stopTime 107.3
scalar RSUExampleScenario.node[15].veinsmobility minSpeed 0.0012770600754386
scalar RSUExampleScenario.node[15].veinsmobility maxSpeed 9.863199546819
scalar RSUExampleScenario.node[15].veinsmobility totalDistance 749.00445508604
scalar RSUExampleScenario.node[15].veinsmobility totalCO2Emission 227.66200658606
scalar RSUExampleScenario.node[18].appl generatedWSMs 1
scalar RSUExampleScenario.node[18].appl receivedWSMs 92
scalar RSUExampleScenario.node[18].appl generatedBSMs 948
scalar RSUExampleScenario.node[18].appl receivedBSMs 53669
scalar RSUExampleScenario.node[18].appl generatedWSAs 0
scalar RSUExampleScenario.node[18].appl receivedWSAs 0
scalar RSUExampleScenario.node[18].nic.phy80211p busyTime 0.065404641350269
scalar RSUExampleScenario.node[18].nic.mac1609_4 ReceivedUnicastPackets 0
scalar RSUExampleScenario.node[18].nic.mac1609_4 ReceivedBroadcasts 53761
scalar RSUExampleScenario.node[18].nic.mac1609_4 SentPackets 949
scalar RSUExampleScenario.node[18].nic.mac1609_4 SentAcknowledgements 0
scalar RSUExampleScenario.node[18].nic.mac1609_4 RetriesExceeded 0
scalar RSUExampleScenario.node[18].nic.mac1609_4 SNIRLostPackets 5720
scalar RSUExampleScenario.node[18].nic.mac1609_4 RXTXLostPackets 0
scalar RSUExampleScenario.node[18].nic.mac1609_4 TotalLostPackets 5720
scalar RSUExampleScenario.node[18].nic.mac1609_4 DroppedPacketsInMac 0
scalar RSUExampleScenario.node[18].nic.mac1609_4 TooLittleTime 0
scalar RSUExampleScenario.node[18].nic.mac1609_4 TimesIntoBackoff 950
scalar RSUExampleScenario.node[18].nic.mac1609_4 SlotsBackoff 1464
scalar RSUExampleScenario.node[18].nic.mac1609_4 NumInternalContention 0
scalar RSUExampleScenario.node[18].nic.mac1609_4 totalBusyTime 6.244885
scalar RSUExampleScenario.node[18].nic.mac1609_4 retriesExceeded:count 0
attr source org_car2x_veins_modules_mac_sigRetriesExceeded
scalar RSUExampleScenario.node[18].nic.mac1609_4 sentAcks:count 0
attr source org_car2x_veins_modules_mac_sigSentAck
scalar RSUExampleScenario.node[18].nic.mac1609_4 sentPackets:count 949
attr source org_car2x_veins_modules_mac_sigSentPacket
scalar RSUExampleScenario.node[18].nic.mac1609_4 collisions:count 0
attr source org_car2x_veins_modules_mac_sigCollision
scalar RSUExampleScenario.node[18].nic.mac1609_4 channelBusy:timeavg 0.06587431434605
attr source org_car2x_veins_modules_mac_sigChannelBusy
scalar RSUExampleScenario.node[18].veinsmobility startTime 14.2
scalar RSUExampleScenario.node[18].veinsmobility totalTime 94.7
scalar RSUExampleScenario.node[18].veinsmobility stopTime 109
scalar RSUExampleScenario.node[18].veinsmobility minSpeed 0.01361271776826
scalar RSUExampleScenario.node[18].veinsmobility maxSpeed 10.564167663367
scalar RSUExampleScenario.node[18].veinsmobility totalDistance 748.99304435672
scalar RSUExampleScenario.node[18].veinsmobility totalCO2Emission 227.14351215824
scalar RSUExampleScenario.node[22].appl generatedWSMs 1
scalar RSUExampleScenario.node[22].appl receivedWSMs 93
scalar RSUExampleScenario.node[22].appl generatedBSMs 924
scalar RSUExampleScenario.node[22].appl receivedBSMs 54491
scalar RSUExampleScenario.node[22].appl generatedWSAs 0
scalar RSUExampleScenario.node[22].appl receivedWSAs 0
scalar RSUExampleScenario.node[22].nic.phy80211p busyTime 0.068159740259804
scalar RSUExampleScenario.node[22].nic.mac1609_4 ReceivedUnicastPackets 0
scalar RSUExampleScenario.node[22].nic.mac1609_4 ReceivedBroadcasts 54584
scalar RSUExampleScenario.node[22].nic.mac1609_4 SentPackets 925
scalar RSUExampleScenario.node[22].nic.mac1609_4 SentAcknowledgements 0
scalar RSUExampleScenario.node[22].nic.mac1609_4 RetriesExceeded 0
scalar RSUExampleScenario.node[22].nic.mac1609_4 SNIRLostPackets 5833
scalar RSUExampleScenario.node[22].nic.mac1609_4 RXTXLostPackets 1
scalar RSUExampleScenario.node[22].nic.mac1609_4 TotalLostPackets 5834
scalar RSUExampleScenario.node[22].nic.mac1609_4 DroppedPacketsInMac 0
scalar RSUExampleScenario.node[22].nic.mac1609_4 TooLittleTime 0
scalar RSUExampleScenario.node[22].nic.mac1609_4 TimesIntoBackoff 928
scalar RSUExampleScenario.node[22].nic.mac1609_4 SlotsBackoff 1377
scalar RSUExampleScenario.node[22].nic.mac1609_4 NumInternalContention 0
scalar RSUExampleScenario.node[22].nic.mac1609_4 totalBusyTime 6.336325
scalar RSUExampleScenario.node[22].nic.mac1609_4 retriesExceeded:count 0
attr source org_car2x_veins_modules_mac_sigRetriesExceeded
scalar RSUExampleScenario.node[22].nic.mac1609_4 sentAcks:count 0
attr source org_car2x_veins_modules_mac_sigSentAck
scalar RSUExampleScenario.node[22].nic.mac1609_4 sentPackets:count 925
attr source org_car2x_veins_modules_mac_sigSentPacket
scalar RSUExampleScenario.node[22].nic.mac1609_4 collisions:count 0
attr source org_car2x_veins_modules_mac_sigCollision
scalar RSUExampleScenario.node[22].nic.mac1609_4 channelBusy:timeavg 0.068574945887509
attr source org_car2x_veins_modules_mac_sigChannelBusy
scalar RSUExampleScenario.node[22].veinsmobility startTime 18.2
scalar RSUExampleScenario.node[22].veinsmobility totalTime 92.3
scalar RSUExampleScenario.node[22].veinsmobility stopTime 110.6
scalar RSUExampleScenario.node[22].veinsmobility minSpeed 0.087463378694867
scalar RSUExampleScenario.node[22].veinsmobility maxSpeed 11.732157271534
scalar RSUExampleScenario.node[22].veinsmobility totalDistance 748.84886326537
scalar RSUExampleScenario.node[22].veinsmobility totalCO2Emission 229.44665168131
scalar RSUExampleScenario.node[28].appl generatedWSMs 1
scalar RSUExampleScenario.node[28].appl receivedWSMs 97
scalar RSUExampleScenario.node[28].appl generatedBSMs 884
scalar RSUExampleScenario.node[28].appl receivedBSMs 54755
scalar RSUExampleScenario.node[28].appl generatedWSAs 0
scalar RSUExampleScenario.node[28].appl receivedWSAs 0
scalar RSUExampleScenario.node[28].nic.phy80211p busyTime 0.071873846153914
scalar RSUExampleScenario.node[28].nic.mac1609_4 ReceivedUnicastPackets 0
scalar RSUExampleScenario.node[28].nic.mac1609_4 ReceivedBroadcasts 54852
scalar RSUExampleScenario.node[28].nic.mac1609_4 SentPackets 885
scalar RSUExampleScenario.node[28].nic.mac1609_4 SentAcknowledgements 0
scalar RSUExampleScenario.node[28].nic.mac1609_4 RetriesExceeded 0
scalar RSUExampleScenario.node[28].nic.mac1609_4 SNIRLostPackets 6098
scalar RSUExampleScenario.node[28].nic.mac1609_4 RXTXLostPackets 0
scalar RSUExampleScenario.node[28].nic.mac1609_4 TotalLostPackets 6098
scalar RSUExampleScenario.node[28].nic.mac1609_4 DroppedPacketsInMac 0
scalar RSUExampleScenario.node[28].nic.mac1609_4 TooLittleTime 0
scalar RSUExampleScenario.node[28].nic.mac1609_4 TimesIntoBackoff 885
scalar RSUExampleScenario.node[28].nic.mac1609_4 SlotsBackoff 1226
scalar RSUExampleScenario.node[28].nic.mac1609_4 NumInternalContention 0
scalar RSUExampleScenario.node[28].nic.mac1609_4 totalBusyTime 6.382925
scalar RSUExampleScenario.node[28].nic.mac1609_4 retriesExceeded:count 0
attr source org_car2x_veins_modules_mac_sigRetriesExceeded
scalar RSUExampleScenario.node[28].nic.mac1609_4 sentAcks:count 0
attr source org_car2x_veins_modules_mac_sigSentAck
scalar RSUExampleScenario.node[28].nic.mac1609_4 sentPackets:count 885
attr source org_car2x_veins_modules_mac_sigSentPacket
scalar RSUExampleScenario.node[28].nic.mac1609_4 collisions:count 0
attr source org_car2x_veins_modules_mac_sigCollision
scalar RSUExampleScenario.node[28].nic.mac1609_4 channelBusy:timeavg 0.072205033936719
attr source org_car2x_veins_modules_mac_sigChannelBusy
scalar RSUExampleScenario.node[28].veinsmobility startTime 24
scalar RSUExampleScenario.node[28].veinsmobility totalTime 88.3
scalar RSUExampleScenario.node[28].veinsmobility stopTime 112.4
scalar RSUExampleScenario.node[28].veinsmobility minSpeed 2.4191825324187
scalar RSUExampleScenario.node[28].veinsmobility maxSpeed 10.856430493207
scalar RSUExampleScenario.node[28].veinsmobility totalDistance 749.45545271215
scalar RSUExampleScenario.node[28].veinsmobility totalCO2Emission 220.81895011296
scalar RSUExampleScenario.node[32].appl generatedWSMs 1
scalar RSUExampleScenario.node[32].appl receivedWSMs 98
scalar RSUExampleScenario.node[32].appl generatedBSMs 861
scalar RSUExampleScenario.node[32].appl receivedBSMs 55263
scalar RSUExampleScenario.node[32].appl generatedWSAs 0
scalar RSUExampleScenario.node[32].appl receivedWSAs 0
scalar RSUExampleScenario.node[32].nic.phy80211p busyTime 0.074727154471618
scalar RSUExampleScenario.node[32].nic.mac1609_4 ReceivedUnicastPackets 0
scalar RSUExampleScenario.node[32].nic.mac1609_4 ReceivedBroadcasts 55361
scalar RSUExampleScenario.node[32].nic.mac1609_4 SentPackets 862
scalar RSUExampleScenario.node[32].nic.mac1609_4 SentAcknowledgements 0
scalar RSUExampleScenario.node[32].nic.mac1609_4 RetriesExceeded 0
scalar RSUExampleScenario.node[32].nic.mac1609_4 SNIRLostPackets 6358
scalar RSUExampleScenario.node[32].nic.mac1609_4 RXTXLostPackets 0
scalar RSUExampleScenario.node[32].nic.mac1609_4 TotalLostPackets 6358
scalar RSUExampleScenario.node[32].nic.mac1609_4 DroppedPacketsInMac 0
scalar RSUExampleScenario.node[32].nic.mac1609_4 TooLittleTime 0
scalar RSUExampleScenario.node[32].nic.mac1609_4 TimesIntoBackoff 864
scalar RSUExampleScenario.node[32].nic.mac1609_4 SlotsBackoff 1242
scalar RSUExampleScenario.node[32].nic.mac1609_4 NumInternalContention 0
scalar RSUExampleScenario.node[32].nic.mac1609_4 totalBusyTime 6.455046
scalar RSUExampleScenario.node[32].nic.mac1609_4 retriesExceeded:count 0
attr source org_car2x_veins_modules_mac_sigRetriesExceeded
scalar RSUExampleScenario.node[32].nic.mac1609_4 sentAcks:count 0
attr source org_car2x_veins_modules_mac_sigSentAck
scalar RSUExampleScenario.node[32].nic.mac1609_4 sentPackets:count 862
attr source org_car2x_veins_modules_mac_sigSentPacket
scalar RSUExampleScenario.node[32].nic.mac1609_4 collisions:count 0
attr source org_car2x_veins_modules_mac_sigCollision
scalar RSUExampleScenario.node[32].nic.mac1609_4 channelBusy:timeavg 0.074971498257912
attr source org_car2x_veins_modules_mac_sigChannelBusy
scalar RSUExampleScenario.node[32].veinsmobility startTime 28.1
scalar RSUExampleScenario.node[32].veinsmobility totalTime 86
scalar RSUExampleScenario.node[32].veinsmobility stopTime 114.2
scalar RSUExampleScenario.node[32].veinsmobility minSpeed 2.9412064453048
scalar RSUExampleScenario.node[32].veinsmobility maxSpeed 10.534934194338
scalar RSUExampleScenario.node[32].veinsmobility totalDistance 749.4441899079
scalar RSUExampleScenario.node[32].veinsmobility totalCO2Emission 217.83553323863
scalar RSUExampleScenario.node[34].appl generatedWSMs 1
scalar RSUExampleScenario.node[34].appl receivedWSMs 100
scalar RSUExampleScenario.node[34].appl generatedBSMs 859
scalar RSUExampleScenario.node[34].appl receivedBSMs 56336
scalar RSUExampleScenario.node[34].appl generatedWSAs 0
scalar RSUExampleScenario.node[34].appl receivedWSAs 0
scalar RSUExampleScenario.node[34].nic.phy80211p busyTime 0.076337043073419
scalar RSUExampleScenario.node[34].nic.mac1609_4 ReceivedUnicastPackets 0
scalar RSUExampleScenario.node[34].nic.mac1609_4 ReceivedBroadcasts 56436
scalar RSUExampleScenario.node[34].nic.mac1609_4 SentPackets 860
scalar RSUExampleScenario.node[34].nic.mac1609_4 SentAcknowledgements 0
scalar RSUExampleScenario.node[34].nic.mac1609_4 RetriesExceeded 0
scalar RSUExampleScenario.node[34].nic.mac1609_4 SNIRLostPackets 6469
scalar RSUExampleScenario.node[34].nic.mac1609_4 RXTXLostPackets 0
scalar RSUExampleScenario.node[34].nic.mac1609_4 TotalLostPackets 6469
scalar RSUExampleScenario.node[34].nic.mac1609_4 DroppedPacketsInMac 0
scalar RSUExampleScenario.node[34].nic.mac1609_4 TooLittleTime 0
scalar RSUExampleScenario.node[34].nic.mac1609_4 TimesIntoBackoff 860
scalar RSUExampleScenario.node[34].nic.mac1609_4 SlotsBackoff 1332
scalar RSUExampleScenario.node[34].nic.mac1609_4 NumInternalContention 0
scalar RSUExampleScenario.node[34].nic.mac1609_4 totalBusyTime 6.572044
scalar RSUExampleScenario.node[34].nic.mac1609_4 retriesExceeded:count 0
attr source org_car2x_veins_modules_mac_sigRetriesExceeded
scalar RSUExampleScenario.node[34].nic.mac1609_4 sentAcks:count 0
attr source org_car2x_veins_modules_mac_sigSentAck
scalar RSUExampleScenario.node[34].nic.mac1609_4 sentPackets:count 860
attr source org_car2x_veins_modules_mac_sigSentPacket
scalar RSUExampleScenario.node[34].nic.mac1609_4 collisions:count 0
attr source org_car2x_veins_modules_mac_sigCollision
scalar RSUExampleScenario.node[34].nic.mac1609_4 channelBusy:timeavg 0.076508079161892
attr source org_car2x_veins_modules_mac_sigChannelBusy
scalar RSUExampleScenario.node[34].veinsmobility startTime 29.9
scalar RSUExampleScenario.node[34].veinsmobility totalTime 85.8
scalar RSUExampleScenario.node[34].veinsmobility stopTime 115.8
scalar RSUExampleScenario.node[34].veinsmobility minSpeed 2.8569598544425
scalar RSUExampleScenario.node[34].veinsmobility maxSpeed 11.500332775392
scalar RSUExampleScenario.node[34].veinsmobility totalDistance 749.20625824103
scalar RSUExampleScenario.node[34].veinsmobility totalCO2Emission 217.56612877201
scalar RSUExampleScenario.node[38].appl generatedWSMs 1
scalar RSUExampleScenario.node[38].appl receivedWSMs 104
scalar RSUExampleScenario.node[38].appl generatedBSMs 839
scalar RSUExampleScenario.node[38].appl receivedBSMs 56743
scalar RSUExampleScenario.node[38].appl generatedWSAs 0
scalar RSUExampleScenario.node[38].appl receivedWSAs 0
scalar RSUExampleScenario.node[38].nic.phy80211p busyTime 0.079162622169332
scalar RSUExampleScenario.node[38].nic.mac1609_4 ReceivedUnicastPackets 0
scalar RSUExampleScenario.node[38].nic.mac1609_4 ReceivedBroadcasts 56847
scalar RSUExampleScenario.node[38].nic.mac1609_4 SentPackets 840
scalar RSUExampleScenario.node[38].nic.mac1609_4 SentAcknowledgements 0
scalar RSUExampleScenario.node[38].nic.mac1609_4 RetriesExceeded 0
scalar RSUExampleScenario.node[38].nic.mac1609_4 SNIRLostPackets 6867
scalar RSUExampleScenario.node[38].nic.mac1609_4 RXTXLostPackets 0
scalar RSUExampleScenario.node[38].nic.mac1609_4 TotalLostPackets 6867
scalar RSUExampleScenario.node[38].nic.mac1609_4 DroppedPacketsInMac 0
scalar RSUExampleScenario.node[38].nic.mac1609_4 TooLittleTime 0
scalar RSUExampleScenario.node[38].nic.mac1609_4 TimesIntoBackoff 840
scalar RSUExampleScenario.node[38].nic.mac1609_4 SlotsBackoff 1233
scalar RSUExampleScenario.node[38].nic.mac1609_4 NumInternalContention 0
scalar RSUExampleScenario.node[38].nic.mac1609_4 totalBusyTime 6.647368
scalar RSUExampleScenario.node[38].nic.mac1609_4 retriesExceeded:count 0
attr source org_car2x_veins_modules_mac_sigRetriesExceeded
scalar RSUExampleScenario.node[38].nic.mac1609_4 sentAcks:count 0
attr source org_car2x_veins_modules_mac_sigSentAck
scalar RSUExampleScenario.node[38].nic.mac1609_4 sentPackets:count 840
attr source org_car2x_veins_modules_mac_sigSentPacket
scalar RSUExampleScenario.node[38].nic.mac1609_4 collisions:count 0
attr source org_car2x_veins_modules_mac_sigCollision
scalar RSUExampleScenario.node[38].nic.mac1609_4 channelBusy:timeavg 0.079229654350498
attr source org_car2x_veins_modules_mac_sigChannelBusy
scalar RSUExampleScenario.node[38].veinsmobility startTime 33.9
scalar RSUExampleScenario.node[38].veinsmobility totalTime 83.8
scalar RSUExampleScenario.node[38].veinsmobility stopTime 117.8
scalar RSUExampleScenario.node[38].veinsmobility minSpeed 2.3759987918077
scalar RSUExampleScenario.node[38].veinsmobility maxSpeed 10.296652343174
scalar RSUExampleScenario.node[38].veinsmobility totalDistance 749.57969877468
scalar RSUExampleScenario.node[38].veinsmobility totalCO2Emission 206.9371835637
scalar RSUExampleScenario.node[40].appl generatedWSMs 1
scalar RSUExampleScenario.node[40].appl receivedWSMs 69
scalar RSUExampleScenario.node[40].appl generatedBSMs 835
scalar RSUExampleScenario.node[40].appl receivedBSMs 57625
scalar RSUExampleScenario.node[40].appl generatedWSAs 0
scalar RSUExampleScenario.node[40].appl receivedWSAs 0
scalar RSUExampleScenario.node[40].nic.phy80211p busyTime 0.080799137724638
scalar RSUExampleScenario.node[40].nic.mac1609_4 ReceivedUnicastPackets 0
scalar RSUExampleScenario.node[40].nic.mac1609_4 ReceivedBroadcasts 57694
scalar RSUExampleScenario.node[40].nic.mac1609_4 SentPackets 836
scalar RSUExampleScenario.node[40].nic.mac1609_4 SentAcknowledgements 0
scalar RSUExampleScenario.node[40].nic.mac1609_4 RetriesExceeded 0
scalar RSUExampleScenario.node[40].nic.mac1609_4 SNIRLostPackets 7075
scalar RSUExampleScenario.node[40].nic.mac1609_4 RXTXLostPackets 0
scalar RSUExampleScenario.node[40].nic.mac1609_4 TotalLostPackets 7075
scalar RSUExampleScenario.node[40].nic.mac1609_4 DroppedPacketsInMac 0
scalar RSUExampleScenario.node[40].nic.mac1609_4 TooLittleTime 0
scalar RSUExampleScenario.node[40].nic.mac1609_4 TimesIntoBackoff 836
scalar RSUExampleScenario.node[40].nic.mac1609_4 SlotsBackoff 1273
scalar RSUExampleScenario.node[40].nic.mac1609_4 NumInternalContention 0
scalar RSUExampleScenario.node[40].nic.mac1609_4 totalBusyTime 6.746212
scalar RSUExampleScenario.node[40].nic.mac1609_4 retriesExceeded:count 0
attr source org_car2x_veins_modules_mac_sigRetriesExceeded
scalar RSUExampleScenario.node[40].nic.mac1609_4 sentAcks:count 0
attr source org_car2x_veins_modules_mac_sigSentAck
scalar RSUExampleScenario.node[40].nic.mac1609_4 sentPackets:count 836
attr source org_car2x_veins_modules_mac_sigSentPacket
scalar RSUExampleScenario.node[40].nic.mac1609_4 collisions:count 0
attr source org_car2x_veins_modules_mac_sigCollision
scalar RSUExampleScenario.node[40].nic.mac1609_4 channelBusy:timeavg 0.080792958083917
attr source org_car2x_veins_modules_mac_sigChannelBusy
scalar RSUExampleScenario.node[40].veinsmobility startTime 36
scalar RSUExampleScenario.node[40].veinsmobility totalTime 83.4
scalar RSUExampleScenario.node[40].veinsmobility stopTime 119.5
scalar RSUExampleScenario.node[40].veinsmobility minSpeed 2.196603379686
scalar RSUExampleScenario.node[40].veinsmobility maxSpeed 10.501150723245
scalar RSUExampleScenario.node[40].veinsmobility totalDistance 749.08079751228
scalar RSUExampleScenario.node[40].veinsmobility totalCO2Emission 210.60864936274
scalar RSUExampleScenario.manager roiArea 0
scalar RSUExampleScenario.node[2].appl generatedWSMs 1
scalar RSUExampleScenario.node[2].appl receivedWSMs 120
scalar RSUExampleScenario.node[2].appl generatedBSMs 1191
scalar RSUExampleScenario.node[2].appl receivedBSMs 71552
scalar RSUExampleScenario.node[2].appl generatedWSAs 0
scalar RSUExampleScenario.node[2].appl receivedWSAs 0
scalar RSUExampleScenario.node[2].nic.phy80211p busyTime 0.063969303106717
scalar RSUExampleScenario.node[2].nic.mac1609_4 ReceivedUnicastPackets 0
scalar RSUExampleScenario.node[2].nic.mac1609_4 ReceivedBroadcasts 71672
scalar RSUExampleScenario.node[2].nic.mac1609_4 SentPackets 1192
scalar RSUExampleScenario.node[2].nic.mac1609_4 SentAcknowledgements 0
scalar RSUExampleScenario.node[2].nic.mac1609_4 RetriesExceeded 0
scalar RSUExampleScenario.node[2].nic.mac1609_4 SNIRLostPackets 1435
scalar RSUExampleScenario.node[2].nic.mac1609_4 RXTXLostPackets 0
scalar RSUExampleScenario.node[2].nic.mac1609_4 TotalLostPackets 1435
scalar RSUExampleScenario.node[2].nic.mac1609_4 DroppedPacketsInMac 0
scalar RSUExampleScenario.node[2].nic.mac1609_4 TooLittleTime 0
scalar RSUExampleScenario.node[2].nic.mac1609_4 TimesIntoBackoff 1192
scalar RSUExampleScenario.node[2].nic.mac1609_4 SlotsBackoff 1799
scalar RSUExampleScenario.node[2].nic.mac1609_4 NumInternalContention 0
scalar RSUExampleScenario.node[2].nic.mac1609_4 totalBusyTime 7.653944
scalar RSUExampleScenario.node[2].nic.mac1609_4 retriesExceeded:count 0
attr source org_car2x_veins_modules_mac_sigRetriesExceeded
scalar RSUExampleScenario.node[2].nic.mac1609_4 sentAcks:count 0
attr source org_car2x_veins_modules_mac_sigSentAck
scalar RSUExampleScenario.node[2].nic.mac1609_4 sentPackets:count 1192
attr source org_car2x_veins_modules_mac_sigSentPacket
scalar RSUExampleScenario.node[2].nic.mac1609_4 collisions:count 0
attr source org_car2x_veins_modules_mac_sigCollision
scalar RSUExampleScenario.node[2].nic.mac1609_4 channelBusy:timeavg 0.064264853064734
attr source org_car2x_veins_modules_mac_sigChannelBusy
scalar RSUExampleScenario.node[2].veinsmobility startTime 0.9
scalar RSUExampleScenario.node[2].veinsmobility totalTime 119.1
scalar RSUExampleScenario.node[2].veinsmobility stopTime 120
scalar RSUExampleScenario.node[2].veinsmobility minSpeed 0
scalar RSUExampleScenario.node[2].veinsmobility maxSpeed 10.297867905462
scalar RSUExampleScenario.node[2].veinsmobility totalDistance 236.39899971394
scalar RSUExampleScenario.node[2].veinsmobility totalCO2Emission 150.37407078163
scalar RSUExampleScenario.node[4].appl generatedWSMs 1
scalar RSUExampleScenario.node[4].appl receivedWSMs 120
scalar RSUExampleScenario.node[4].appl generatedBSMs 1181
scalar RSUExampleScenario.node[4].appl receivedBSMs 71532
scalar RSUExampleScenario.node[4].appl generatedWSAs 0
scalar RSUExampleScenario.node[4].appl receivedWSAs 0
scalar RSUExampleScenario.node[4].nic.phy80211p busyTime 0.064486299746062
scalar RSUExampleScenario.node[4].nic.mac1609_4 ReceivedUnicastPackets 0
scalar RSUExampleScenario.node[4].nic.mac1609_4 ReceivedBroadcasts 71652
scalar RSUExampleScenario.node[4].nic.mac1609_4 SentPackets 1182
scalar RSUExampleScenario.node[4].nic.mac1609_4 SentAcknowledgements 0
scalar RSUExampleScenario.node[4].nic.mac1609_4 RetriesExceeded 0
scalar RSUExampleScenario.node[4].nic.mac1609_4 SNIRLostPackets 1427
scalar RSUExampleScenario.node[4].nic.mac1609_4 RXTXLostPackets 0
scalar RSUExampleScenario.node[4].nic.mac1609_4 TotalLostPackets 1427
scalar RSUExampleScenario.node[4].nic.mac1609_4 DroppedPacketsInMac 0
scalar RSUExampleScenario.node[4].nic.mac1609_4 TooLittleTime 0
scalar RSUExampleScenario.node[4].nic.mac1609_4 TimesIntoBackoff 1182
scalar RSUExampleScenario.node[4].nic.mac1609_4 SlotsBackoff 1770
scalar RSUExampleScenario.node[4].nic.mac1609_4 NumInternalContention 0
scalar RSUExampleScenario.node[4].nic.mac1609_4 totalBusyTime 7.649982
scalar RSUExampleScenario.node[4].nic.mac1609_4 retriesExceeded:count 0
attr source org_car2x_veins_modules_mac_sigRetriesExceeded
scalar RSUExampleScenario.node[4].nic.mac1609_4 sentAcks:count 0
attr source org_car2x_veins_modules_mac_sigSentAck
scalar RSUExampleScenario.node[4].nic.mac1609_4 sentPackets:count 1182
attr source org_car2x_veins_modules_mac_sigSentPacket
scalar RSUExampleScenario.node[4].nic.mac1609_4 collisions:count 0
attr source org_car2x_veins_modules_mac_sigCollision
scalar RSUExampleScenario.node[4].nic.mac1609_4 channelBusy:timeavg 0.064775461473411
attr source org_car2x_veins_modules_mac_sigChannelBusy
scalar RSUExampleScenario.node[4].veinsmobility startTime 1.9
scalar RSUExampleScenario.node[4].veinsmobility totalTime 118.1
scalar RSUExampleScenario.node[4].veinsmobility stopTime 120
scalar RSUExampleScenario.node[4].veinsmobility minSpeed 0
scalar RSUExampleScenario.node[4].veinsmobility maxSpeed 8.8310491088494
scalar RSUExampleScenario.node[4].veinsmobility totalDistance 228.89799063763
scalar RSUExampleScenario.node[4].veinsmobility totalCO2Emission 148.33152924563
scalar RSUExampleScenario.node[6].appl generatedWSMs 1
scalar RSUExampleScenario.node[6].appl receivedWSMs 101
scalar RSUExampleScenario.node[6].appl generatedBSMs 1168
scalar RSUExampleScenario.node[6].appl receivedBSMs 64783
scalar RSUExampleScenario.node[6].appl generatedWSAs 0
scalar RSUExampleScenario.node[6].appl receivedWSAs 0
scalar RSUExampleScenario.node[6].nic.phy80211p busyTime 0.065147945205565
scalar RSUExampleScenario.node[6].nic.mac1609_4 ReceivedUnicastPackets 0
scalar RSUExampleScenario.node[6].nic.mac1609_4 ReceivedBroadcasts 64884
scalar RSUExampleScenario.node[6].nic.mac1609_4 SentPackets 1169
scalar RSUExampleScenario.node[6].nic.mac1609_4 SentAcknowledgements 0
scalar RSUExampleScenario.node[6].nic.mac1609_4 RetriesExceeded 0
scalar RSUExampleScenario.node[6].nic.mac1609_4 SNIRLostPackets 8132
scalar RSUExampleScenario.node[6].nic.mac1609_4 RXTXLostPackets 0
scalar RSUExampleScenario.node[6].nic.mac1609_4 TotalLostPackets 8132
scalar RSUExampleScenario.node[6].nic.mac1609_4 DroppedPacketsInMac 0
scalar RSUExampleScenario.node[6].nic.mac1609_4 TooLittleTime 0
scalar RSUExampleScenario.node[6].nic.mac1609_4 TimesIntoBackoff 1465
scalar RSUExampleScenario.node[6].nic.mac1609_4 SlotsBackoff 2258
scalar RSUExampleScenario.node[6].nic.mac1609_4 NumInternalContention 0
scalar RSUExampleScenario.node[6].nic.mac1609_4 totalBusyTime 7.642065103176
scalar RSUExampleScenario.node[6].nic.mac1609_4 retriesExceeded:count 0
attr source org_car2x_veins_modules_mac_sigRetriesExceeded
scalar RSUExampleScenario.node[6].nic.mac1609_4 sentAcks:count 0
attr source org_car2x_veins_modules_mac_sigSentAck
scalar RSUExampleScenario.node[6].nic.mac1609_4 sentPackets:count 1169
attr source org_car2x_veins_modules_mac_sigSentPacket
scalar RSUExampleScenario.node[6].nic.mac1609_4 collisions:count 0
attr source org_car2x_veins_modules_mac_sigCollision
scalar RSUExampleScenario.node[6].nic.mac1609_4 channelBusy:timeavg 0.06542863958207
attr source org_car2x_veins_modules_mac_sigChannelBusy
scalar RSUExampleScenario.node[6].veinsmobility startTime 3.2
scalar RSUExampleScenario.node[6].veinsmobility totalTime 116.8
scalar RSUExampleScenario.node[6].veinsmobility stopTime 120
scalar RSUExampleScenario.node[6].veinsmobility minSpeed 1.1626446804305e-05
scalar RSUExampleScenario.node[6].veinsmobility maxSpeed 7.6443032571132
scalar RSUExampleScenario.node[6].veinsmobility totalDistance 740.2442650157
scalar RSUExampleScenario.node[6].veinsmobility totalCO2Emission 225.25672772323
scalar RSUExampleScenario.node[8].appl generatedWSMs 1
scalar RSUExampleScenario.node[8].appl receivedWSMs 106
scalar RSUExampleScenario.node[8].appl generatedBSMs 1154
scalar RSUExampleScenario.node[8].appl receivedBSMs 65585
scalar RSUExampleScenario.node[8].appl generatedWSAs 0
scalar RSUExampleScenario.node[8].appl receivedWSAs 0
scalar RSUExampleScenario.node[8].nic.phy80211p busyTime 0.065849982669063
scalar RSUExampleScenario.node[8].nic.mac1609_4 ReceivedUnicastPackets 0
scalar RSUExampleScenario.node[8].nic.mac1609_4 ReceivedBroadcasts 65691
scalar RSUExampleScenario.node[8].nic.mac1609_4 SentPackets 1155
scalar RSUExampleScenario.node[8].nic.mac1609_4 SentAcknowledgements 0
scalar RSUExampleScenario.node[8].nic.mac1609_4 RetriesExceeded 0
scalar RSUExampleScenario.node[8].nic.mac1609_4 SNIRLostPackets 7227
scalar RSUExampleScenario.node[8].nic.mac1609_4 RXTXLostPackets 0
scalar RSUExampleScenario.node[8].nic.mac1609_4 TotalLostPackets 7227
scalar RSUExampleScenario.node[8].nic.mac1609_4 DroppedPacketsInMac 0
scalar RSUExampleScenario.node[8].nic.mac1609_4 TooLittleTime 0
scalar RSUExampleScenario.node[8].nic.mac1609_4 TimesIntoBackoff 1156
scalar RSUExampleScenario.node[8].nic.mac1609_4 SlotsBackoff 1690
scalar RSUExampleScenario.node[8].nic.mac1609_4 NumInternalContention 0
scalar RSUExampleScenario.node[8].nic.mac1609_4 totalBusyTime 7.630403050776
scalar RSUExampleScenario.node[8].nic.mac1609_4 retriesExceeded:count 0
attr source org_car2x_veins_modules_mac_sigRetriesExceeded
scalar RSUExampleScenario.node[8].nic.mac1609_4 sentAcks:count 0
attr source org_car2x_veins_modules_mac_sigSentAck
scalar RSUExampleScenario.node[8].nic.mac1609_4 sentPackets:count 1155
attr source org_car2x_veins_modules_mac_sigSentPacket
scalar RSUExampleScenario.node[8].nic.mac1609_4 collisions:count 0
attr source org_car2x_veins_modules_mac_sigCollision
scalar RSUExampleScenario.node[8].nic.mac1609_4 channelBusy:timeavg 0.066121343594331
attr source org_car2x_veins_modules_mac_sigChannelBusy
scalar RSUExampleScenario.node[8].veinsmobility startTime 4.6
scalar RSUExampleScenario.node[8].veinsmobility totalTime 115.4
scalar RSUExampleScenario.node[8].veinsmobility stopTime 120
scalar RSUExampleScenario.node[8].veinsmobility minSpeed 0.00017672001958229
scalar RSUExampleScenario.node[8].veinsmobility maxSpeed 7.7441004572693
scalar RSUExampleScenario.node[8].veinsmobility totalDistance 724.81356237746
scalar RSUExampleScenario.node[8].veinsmobility totalCO2Emission 235.00094703547
scalar RSUExampleScenario.node[9].appl generatedWSMs 1
scalar RSUExampleScenario.node[9].appl receivedWSMs 120
scalar RSUExampleScenario.node[9].appl generatedBSMs 1153
scalar RSUExampleScenario.node[9].appl receivedBSMs 71345
scalar RSUExampleScenario.node[9].appl generatedWSAs 0
scalar RSUExampleScenario.node[9].appl receivedWSAs 0
scalar RSUExampleScenario.node[9].nic.phy80211p busyTime 0.06589987857771
scalar RSUExampleScenario.node[9].nic.mac1609_4 ReceivedUnicastPackets 0
scalar RSUExampleScenario.node[9].nic.mac1609_4 ReceivedBroadcasts 71465
scalar RSUExampleScenario.node[9].nic.mac1609_4 SentPackets 1154
scalar RSUExampleScenario.node[9].nic.mac1609_4 SentAcknowledgements 0
scalar RSUExampleScenario.node[9].nic.mac1609_4 RetriesExceeded 0
scalar RSUExampleScenario.node[9].nic.mac1609_4 SNIRLostPackets 1445
scalar RSUExampleScenario.node[9].nic.mac1609_4 RXTXLostPackets 0
scalar RSUExampleScenario.node[9].nic.mac1609_4 TotalLostPackets 1445
scalar RSUExampleScenario.node[9].nic.mac1609_4 DroppedPacketsInMac 0
scalar RSUExampleScenario.node[9].nic.mac1609_4 TooLittleTime 0
scalar RSUExampleScenario.node[9].nic.mac1609_4 TimesIntoBackoff 1155
scalar RSUExampleScenario.node[9].nic.mac1609_4 SlotsBackoff 1647
scalar RSUExampleScenario.node[9].nic.mac1609_4 NumInternalContention 0
scalar RSUExampleScenario.node[9].nic.mac1609_4 totalBusyTime 7.629466
scalar RSUExampleScenario.node[9].nic.mac1609_4 retriesExceeded:count 0
attr source org_car2x_veins_modules_mac_sigRetriesExceeded
scalar RSUExampleScenario.node[9].nic.mac1609_4 sentAcks:count 0
attr source org_car2x_veins_modules_mac_sigSentAck
scalar RSUExampleScenario.node[9].nic.mac1609_4 sentPackets:count 1154
attr source org_car2x_veins_modules_mac_sigSentPacket
scalar RSUExampleScenario.node[9].nic.mac1609_4 collisions:count 0
attr source org_car2x_veins_modules_mac_sigCollision
scalar RSUExampleScenario.node[9].nic.mac1609_4 channelBusy:timeavg 0.066170563746832
attr source org_car2x_veins_modules_mac_sigChannelBusy
scalar RSUExampleScenario.node[9].veinsmobility startTime 4.7
scalar RSUExampleScenario.node[9].veinsmobility totalTime 115.3
scalar RSUExampleScenario.node[9].veinsmobility stopTime 120
scalar RSUExampleScenario.node[9].veinsmobility minSpeed 0
scalar RSUExampleScenario.node[9].veinsmobility maxSpeed 10.535291677905
scalar RSUExampleScenario.node[9].veinsmobility totalDistance 221.3969812128
scalar RSUExampleScenario.node[9].veinsmobility totalCO2Emission 151.09288585663
scalar RSUExampleScenario.node[10].appl generatedWSMs 1
scalar RSUExampleScenario.node[10].appl receivedWSMs 109
scalar RSUExampleScenario.node[10].appl generatedBSMs 1138
scalar RSUExampleScenario.node[10].appl receivedBSMs 66309
scalar RSUExampleScenario.node[10].appl generatedWSAs 0
scalar RSUExampleScenario.node[10].appl receivedWSAs 0
scalar RSUExampleScenario.node[10].nic.phy80211p busyTime 0.066644217926273
scalar RSUExampleScenario.node[10].nic.mac1609_4 ReceivedUnicastPackets 0
scalar RSUExampleScenario.node[10].nic.mac1609_4 ReceivedBroadcasts 66418
scalar RSUExampleScenario.node[10].nic.mac1609_4 SentPackets 1139
scalar RSUExampleScenario.node[10].nic.mac1609_4 SentAcknowledgements 0
scalar RSUExampleScenario.node[10].nic.mac1609_4 RetriesExceeded 0
scalar RSUExampleScenario.node[10].nic.mac1609_4 SNIRLostPackets 6356
scalar RSUExampleScenario.node[10].nic.mac1609_4 RXTXLostPackets 1
scalar RSUExampleScenario.node[10].nic.mac1609_4 TotalLostPackets 6357
scalar RSUExampleScenario.node[10].nic.mac1609_4 DroppedPacketsInMac 0
scalar RSUExampleScenario.node[10].nic.mac1609_4 TooLittleTime 0
scalar RSUExampleScenario.node[10].nic.mac1609_4 TimesIntoBackoff 1932
scalar RSUExampleScenario.node[10].nic.mac1609_4 SlotsBackoff 2861
scalar RSUExampleScenario.node[10].nic.mac1609_4 NumInternalContention 0
scalar RSUExampleScenario.node[10].nic.mac1609_4 totalBusyTime 7.613851
scalar RSUExampleScenario.node[10].nic.mac1609_4 retriesExceeded:count 0
attr source org_car2x_veins_modules_mac_sigRetriesExceeded
scalar RSUExampleScenario.node[10].nic.mac1609_4 sentAcks:count 0
attr source org_car2x_veins_modules_mac_sigSentAck
scalar RSUExampleScenario.node[10].nic.mac1609_4 sentPackets:count 1139
attr source org_car2x_veins_modules_mac_sigSentPacket
scalar RSUExampleScenario.node[10].nic.mac1609_4 collisions:count 0
attr source org_car2x_veins_modules_mac_sigCollision
scalar RSUExampleScenario.node[10].nic.mac1609_4 channelBusy:timeavg 0.066905544815551
attr source org_car2x_veins_modules_mac_sigChannelBusy
scalar RSUExampleScenario.node[10].veinsmobility startTime 6.2
scalar RSUExampleScenario.node[10].veinsmobility totalTime 113.8
scalar RSUExampleScenario.node[10].veinsmobility stopTime 120
scalar RSUExampleScenario.node[10].veinsmobility minSpeed 0.0010906779063906
scalar RSUExampleScenario.node[10].veinsmobility maxSpeed 7.8824719600682
scalar RSUExampleScenario.node[10].veinsmobility totalDistance 709.41705600455
scalar RSUExampleScenario.node[10].veinsmobility totalCO2Emission 230.77517093159
scalar RSUExampleScenario.node[12].appl generatedWSMs 1
scalar RSUExampleScenario.node[12].appl receivedWSMs 111
scalar RSUExampleScenario.node[12].appl generatedBSMs 1120
scalar RSUExampleScenario.node[12].appl receivedBSMs 66820
scalar RSUExampleScenario.node[12].appl generatedWSAs 0
scalar RSUExampleScenario.node[12].appl receivedWSAs 0
scalar RSUExampleScenario.node[12].nic.phy80211p busyTime 0.06753514285723
scalar RSUExampleScenario.node[12].nic.mac1609_4 ReceivedUnicastPackets 0
scalar RSUExampleScenario.node[12].nic.mac1609_4 ReceivedBroadcasts 66931
scalar RSUExampleScenario.node[12].nic.mac1609_4 SentPackets 1121
scalar RSUExampleScenario.node[12].nic.mac1609_4 SentAcknowledgements 0
scalar RSUExampleScenario.node[12].nic.mac1609_4 RetriesExceeded 0
scalar RSUExampleScenario.node[12].nic.mac1609_4 SNIRLostPackets 5649
scalar RSUExampleScenario.node[12].nic.mac1609_4 RXTXLostPackets 0
scalar RSUExampleScenario.node[12].nic.mac1609_4 TotalLostPackets 5649
scalar RSUExampleScenario.node[12].nic.mac1609_4 DroppedPacketsInMac 0
scalar RSUExampleScenario.node[12].nic.mac1609_4 TooLittleTime 0
scalar RSUExampleScenario.node[12].nic.mac1609_4 TimesIntoBackoff 1121
scalar RSUExampleScenario.node[12].nic.mac1609_4 SlotsBackoff 1637
scalar RSUExampleScenario.node[12].nic.mac1609_4 NumInternalContention 0
scalar RSUExampleScenario.node[12].nic.mac1609_4 totalBusyTime 7.591681
scalar RSUExampleScenario.node[12].nic.mac1609_4 retriesExceeded:count 0
attr source org_car2x_veins_modules_mac_sigRetriesExceeded
scalar RSUExampleScenario.node[12].nic.mac1609_4 sentAcks:count 0
attr source org_car2x_veins_modules_mac_sigSentAck
scalar RSUExampleScenario.node[12].nic.mac1609_4 sentPackets:count 1121
attr source org_car2x_veins_modules_mac_sigSentPacket
scalar RSUExampleScenario.node[12].nic.mac1609_4 collisions:count 0
attr source org_car2x_veins_modules_mac_sigCollision
scalar RSUExampleScenario.node[12].nic.mac1609_4 channelBusy:timeavg 0.067782866071515
attr source org_car2x_veins_modules_mac_sigChannelBusy
scalar RSUExampleScenario.node[12].veinsmobility startTime 8
scalar RSUExampleScenario.node[12].veinsmobility totalTime 112
scalar RSUExampleScenario.node[12].veinsmobility stopTime 120
scalar RSUExampleScenario.node[12].veinsmobility minSpeed 0.0042422682544899
scalar RSUExampleScenario.node[12].veinsmobility maxSpeed 7.8442117707553
scalar RSUExampleScenario.node[12].veinsmobility totalDistance 693.98287004392
scalar RSUExampleScenario.node[12].veinsmobility totalCO2Emission 227.58228006337
scalar RSUExampleScenario.node[13].appl generatedWSMs 1
scalar RSUExampleScenario.node[13].appl receivedWSMs 120
scalar RSUExampleScenario.node[13].appl generatedBSMs 1116
scalar RSUExampleScenario.node[13].appl receivedBSMs 70947
scalar RSUExampleScenario.node[13].appl generatedWSAs 0
scalar RSUExampleScenario.node[13].appl receivedWSAs 0
scalar RSUExampleScenario.node[13].nic.phy80211p busyTime 0.067732473118367
scalar RSUExampleScenario.node[13].nic.mac1609_4 ReceivedUnicastPackets 0
scalar RSUExampleScenario.node[13].nic.mac1609_4 ReceivedBroadcasts 71067
scalar RSUExampleScenario.node[13].nic.mac1609_4 SentPackets 1117
scalar RSUExampleScenario.node[13].nic.mac1609_4 SentAcknowledgements 0
scalar RSUExampleScenario.node[13].nic.mac1609_4 RetriesExceeded 0
scalar RSUExampleScenario.node[13].nic.mac1609_4 SNIRLostPackets 1465
scalar RSUExampleScenario.node[13].nic.mac1609_4 RXTXLostPackets 0
scalar RSUExampleScenario.node[13].nic.mac1609_4 TotalLostPackets 1465
scalar RSUExampleScenario.node[13].nic.mac1609_4 DroppedPacketsInMac 0
scalar RSUExampleScenario.node[13].nic.mac1609_4 TooLittleTime 0
scalar RSUExampleScenario.node[13].nic.mac1609_4 TimesIntoBackoff 1119
scalar RSUExampleScenario.node[13].nic.mac1609_4 SlotsBackoff 1749
scalar RSUExampleScenario.node[13].nic.mac1609_4 NumInternalContention 0
scalar RSUExampleScenario.node[13].nic.mac1609_4 totalBusyTime 7.586269
scalar RSUExampleScenario.node[13].nic.mac1609_4 retriesExceeded:count 0
attr source org_car2x_veins_modules_mac_sigRetriesExceeded
scalar RSUExampleScenario.node[13].nic.mac1609_4 sentAcks:count 0
attr source org_car2x_veins_modules_mac_sigSentAck
scalar RSUExampleScenario.node[13].nic.mac1609_4 sentPackets:count 1117
attr source org_car2x_veins_modules_mac_sigSentPacket
scalar RSUExampleScenario.node[13].nic.mac1609_4 collisions:count 0
attr source org_car2x_veins_modules_mac_sigCollision
scalar RSUExampleScenario.node[13].nic.mac1609_4 channelBusy:timeavg 0.067977320788617
attr source org_car2x_veins_modules_mac_sigChannelBusy
scalar RSUExampleScenario.node[13].veinsmobility startTime 8.4
scalar RSUExampleScenario.node[13].veinsmobility totalTime 111.6
scalar RSUExampleScenario.node[13].veinsmobility stopTime 120
scalar RSUExampleScenario.node[13].veinsmobility minSpeed 0
scalar RSUExampleScenario.node[13].veinsmobility maxSpeed 9.439033897999
scalar RSUExampleScenario.node[13].veinsmobility totalDistance 213.89597128865
scalar RSUExampleScenario.node[13].veinsmobility totalCO2Emission 144.52089745475
scalar RSUExampleScenario.node[14].appl generatedWSMs 1
scalar RSUExampleScenario.node[14].appl receivedWSMs 117
scalar RSUExampleScenario.node[14].appl generatedBSMs 1100
scalar RSUExampleScenario.node[14].appl receivedBSMs 67886
scalar RSUExampleScenario.node[14].appl generatedWSAs 0
scalar RSUExampleScenario.node[14].appl receivedWSAs 0
scalar RSUExampleScenario.node[14].nic.phy80211p busyTime 0.068521018181907
scalar RSUExampleScenario.node[14].nic.mac1609_4 ReceivedUnicastPackets 0
scalar RSUExampleScenario.node[14].nic.mac1609_4 ReceivedBroadcasts 68003
scalar RSUExampleScenario.node[14].nic.mac1609_4 SentPackets 1101
scalar RSUExampleScenario.node[14].nic.mac1609_4 SentAcknowledgements 0
scalar RSUExampleScenario.node[14].nic.mac1609_4 RetriesExceeded 0
scalar RSUExampleScenario.node[14].nic.mac1609_4 SNIRLostPackets 4321
scalar RSUExampleScenario.node[14].nic.mac1609_4 RXTXLostPackets 0
scalar RSUExampleScenario.node[14].nic.mac1609_4 TotalLostPackets 4321
scalar RSUExampleScenario.node[14].nic.mac1609_4 DroppedPacketsInMac 0
scalar RSUExampleScenario.node[14].nic.mac1609_4 TooLittleTime 0
scalar RSUExampleScenario.node[14].nic.mac1609_4 TimesIntoBackoff 1101
scalar RSUExampleScenario.node[14].nic.mac1609_4 SlotsBackoff 1590
scalar RSUExampleScenario.node[14].nic.mac1609_4 NumInternalContention 0
scalar RSUExampleScenario.node[14].nic.mac1609_4 totalBusyTime 7.562957
scalar RSUExampleScenario.node[14].nic.mac1609_4 retriesExceeded:count 0
attr source org_car2x_veins_modules_mac_sigRetriesExceeded
scalar RSUExampleScenario.node[14].nic.mac1609_4 sentAcks:count 0
attr source org_car2x_veins_modules_mac_sigSentAck
scalar RSUExampleScenario.node[14].nic.mac1609_4 sentPackets:count 1101
attr source org_car2x_veins_modules_mac_sigSentPacket
scalar RSUExampleScenario.node[14].nic.mac1609_4 collisions:count 0
attr source org_car2x_veins_modules_mac_sigCollision
scalar RSUExampleScenario.node[14].nic.mac1609_4 channelBusy:timeavg 0.068754154545542
attr source org_car2x_veins_modules_mac_sigChannelBusy
scalar RSUExampleScenario.node[14].veinsmobility startTime 10
scalar RSUExampleScenario.node[14].veinsmobility totalTime 110
scalar RSUExampleScenario.node[14].veinsmobility stopTime 120
scalar RSUExampleScenario.node[14].veinsmobility minSpeed 0.011083065737785
scalar RSUExampleScenario.node[14].veinsmobility maxSpeed 7.2418767297292
scalar RSUExampleScenario.node[14].veinsmobility totalDistance 653.34260983321
scalar RSUExampleScenario.node[14].veinsmobility totalCO2Emission 206.82796590806
scalar RSUExampleScenario.node[16].appl generatedWSMs 1
scalar RSUExampleScenario.node[16].appl receivedWSMs 118
scalar RSUExampleScenario.node[16].appl generatedBSMs 1079
scalar RSUExampleScenario.node[16].appl receivedBSMs 67900
scalar RSUExampleScenario.node[16].appl generatedWSAs 0
scalar RSUExampleScenario.node[16].appl receivedWSAs 0
scalar RSUExampleScenario.node[16].nic.phy80211p busyTime 0.069554847080719
scalar RSUExampleScenario.node[16].nic.mac1609_4 ReceivedUnicastPackets 0
scalar RSUExampleScenario.node[16].nic.mac1609_4 ReceivedBroadcasts 68018
scalar RSUExampleScenario.node[16].nic.mac1609_4 SentPackets 1080
scalar RSUExampleScenario.node[16].nic.mac1609_4 SentAcknowledgements 0
scalar RSUExampleScenario.node[16].nic.mac1609_4 RetriesExceeded 0
scalar RSUExampleScenario.node[16].nic.mac1609_4 SNIRLostPackets 3995
scalar RSUExampleScenario.node[16].nic.mac1609_4 RXTXLostPackets 0
scalar RSUExampleScenario.node[16].nic.mac1609_4 TotalLostPackets 3995
scalar RSUExampleScenario.node[16].nic.mac1609_4 DroppedPacketsInMac 0
scalar RSUExampleScenario.node[16].nic.mac1609_4 TooLittleTime 0
scalar RSUExampleScenario.node[16].nic.mac1609_4 TimesIntoBackoff 1080
scalar RSUExampleScenario.node[16].nic.mac1609_4 SlotsBackoff 1648
scalar RSUExampleScenario.node[16].nic.mac1609_4 NumInternalContention 0
scalar RSUExampleScenario.node[16].nic.mac1609_4 totalBusyTime 7.528408000008
scalar RSUExampleScenario.node[16].nic.mac1609_4 retriesExceeded:count 0
attr source org_car2x_veins_modules_mac_sigRetriesExceeded
scalar RSUExampleScenario.node[16].nic.mac1609_4 sentAcks:count 0
attr source org_car2x_veins_modules_mac_sigSentAck
scalar RSUExampleScenario.node[16].nic.mac1609_4 sentPackets:count 1080
attr source org_car2x_veins_modules_mac_sigSentPacket
scalar RSUExampleScenario.node[16].nic.mac1609_4 collisions:count 0
attr source org_car2x_veins_modules_mac_sigCollision
scalar RSUExampleScenario.node[16].nic.mac1609_4 channelBusy:timeavg 0.069772085264295
attr source org_car2x_veins_modules_mac_sigChannelBusy
scalar RSUExampleScenario.node[16].veinsmobility startTime 12.1
scalar RSUExampleScenario.node[16].veinsmobility totalTime 107.9
scalar RSUExampleScenario.node[16].veinsmobility stopTime 120
scalar RSUExampleScenario.node[16].veinsmobility minSpeed 0.025923148898488
scalar RSUExampleScenario.node[16].veinsmobility maxSpeed 7.584703502943
scalar RSUExampleScenario.node[16].veinsmobility totalDistance 638.37049536151
scalar RSUExampleScenario.node[16].veinsmobility totalCO2Emission 214.21237582822
scalar RSUExampleScenario.node[17].appl generatedWSMs 1
scalar RSUExampleScenario.node[17].appl receivedWSMs 120
scalar RSUExampleScenario.node[17].appl generatedBSMs 1077
scalar RSUExampleScenario.node[17].appl receivedBSMs 70397
scalar RSUExampleScenario.node[17].appl generatedWSAs 0
scalar RSUExampleScenario.node[17].appl receivedWSAs 0
scalar RSUExampleScenario.node[17].nic.phy80211p busyTime 0.069653110492197
scalar RSUExampleScenario.node[17].nic.mac1609_4 ReceivedUnicastPackets 0
scalar RSUExampleScenario.node[17].nic.mac1609_4 ReceivedBroadcasts 70517
scalar RSUExampleScenario.node[17].nic.mac1609_4 SentPackets 1078
scalar RSUExampleScenario.node[17].nic.mac1609_4 SentAcknowledgements 0
scalar RSUExampleScenario.node[17].nic.mac1609_4 RetriesExceeded 0
scalar RSUExampleScenario.node[17].nic.mac1609_4 SNIRLostPackets 1464
scalar RSUExampleScenario.node[17].nic.mac1609_4 RXTXLostPackets 0
scalar RSUExampleScenario.node[17].nic.mac1609_4 TotalLostPackets 1464
scalar RSUExampleScenario.node[17].nic.mac1609_4 DroppedPacketsInMac 0
scalar RSUExampleScenario.node[17].nic.mac1609_4 TooLittleTime 0
scalar RSUExampleScenario.node[17].nic.mac1609_4 TimesIntoBackoff 1079
scalar RSUExampleScenario.node[17].nic.mac1609_4 SlotsBackoff 1642
scalar RSUExampleScenario.node[17].nic.mac1609_4 NumInternalContention 0
scalar RSUExampleScenario.node[17].nic.mac1609_4 totalBusyTime 7.52487
scalar RSUExampleScenario.node[17].nic.mac1609_4 retriesExceeded:count 0
attr source org_car2x_veins_modules_mac_sigRetriesExceeded
scalar RSUExampleScenario.node[17].nic.mac1609_4 sentAcks:count 0
attr source org_car2x_veins_modules_mac_sigSentAck
scalar RSUExampleScenario.node[17].nic.mac1609_4 sentPackets:count 1078
attr source org_car2x_veins_modules_mac_sigSentPacket
scalar RSUExampleScenario.node[17].nic.mac1609_4 collisions:count 0
attr source org_car2x_veins_modules_mac_sigCollision
scalar RSUExampleScenario.node[17].nic.mac1609_4 channelBusy:timeavg 0.0698688022285
attr source org_car2x_veins_modules_mac_sigChannelBusy
scalar RSUExampleScenario.node[17].veinsmobility startTime 12.3
scalar RSUExampleScenario.node[17].veinsmobility totalTime 107.7
scalar RSUExampleScenario.node[17].veinsmobility stopTime 120
scalar RSUExampleScenario.node[17].veinsmobility minSpeed 0
scalar RSUExampleScenario.node[17].veinsmobility maxSpeed 10.409170515073
scalar RSUExampleScenario.node[17].veinsmobility totalDistance 206.39496194338
scalar RSUExampleScenario.node[17].veinsmobility totalCO2Emission 142.87251586203
scalar RSUExampleScenario.node[19].appl generatedWSMs 1
scalar RSUExampleScenario.node[19].appl receivedWSMs 120
scalar RSUExampleScenario.node[19].appl generatedBSMs 1057
scalar RSUExampleScenario.node[19].appl receivedBSMs 67811
scalar RSUExampleScenario.node[19].appl generatedWSAs 0
scalar RSUExampleScenario.node[19].appl receivedWSAs 0
scalar RSUExampleScenario.node[19].nic.phy80211p busyTime 0.070635534531783
scalar RSUExampleScenario.node[19].nic.mac1609_4 ReceivedUnicastPackets 0
scalar RSUExampleScenario.node[19].nic.mac1609_4 ReceivedBroadcasts 67931
scalar RSUExampleScenario.node[19].nic.mac1609_4 SentPackets 1058
scalar RSUExampleScenario.node[19].nic.mac1609_4 SentAcknowledgements 0
scalar RSUExampleScenario.node[19].nic.mac1609_4 RetriesExceeded 0
scalar RSUExampleScenario.node[19].nic.mac1609_4 SNIRLostPackets 3709
scalar RSUExampleScenario.node[19].nic.mac1609_4 RXTXLostPackets 0
scalar RSUExampleScenario.node[19].nic.mac1609_4 TotalLostPackets 3709
scalar RSUExampleScenario.node[19].nic.mac1609_4 DroppedPacketsInMac 0
scalar RSUExampleScenario.node[19].nic.mac1609_4 TooLittleTime 0
scalar RSUExampleScenario.node[19].nic.mac1609_4 TimesIntoBackoff 1058
scalar RSUExampleScenario.node[19].nic.mac1609_4 SlotsBackoff 1562
scalar RSUExampleScenario.node[19].nic.mac1609_4 NumInternalContention 0
scalar RSUExampleScenario.node[19].nic.mac1609_4 totalBusyTime 7.487306
scalar RSUExampleScenario.node[19].nic.mac1609_4 retriesExceeded:count 0
attr source org_car2x_veins_modules_mac_sigRetriesExceeded
scalar RSUExampleScenario.node[19].nic.mac1609_4 sentAcks:count 0
attr source org_car2x_veins_modules_mac_sigSentAck
scalar RSUExampleScenario.node[19].nic.mac1609_4 sentPackets:count 1058
attr source org_car2x_veins_modules_mac_sigSentPacket
scalar RSUExampleScenario.node[19].nic.mac1609_4 collisions:count 0
attr source org_car2x_veins_modules_mac_sigCollision
scalar RSUExampleScenario.node[19].nic.mac1609_4 channelBusy:timeavg 0.070835439924403
attr source org_car2x_veins_modules_mac_sigChannelBusy
scalar RSUExampleScenario.node[19].veinsmobility startTime 14.3
scalar RSUExampleScenario.node[19].veinsmobility totalTime 105.7
scalar RSUExampleScenario.node[19].veinsmobility stopTime 120
scalar RSUExampleScenario.node[19].veinsmobility minSpeed 0.049811479215372
scalar RSUExampleScenario.node[19].veinsmobility maxSpeed 7.5862197250773
scalar RSUExampleScenario.node[19].veinsmobility totalDistance 623.38270529095
scalar RSUExampleScenario.node[19].veinsmobility totalCO2Emission 208.55649921916
scalar RSUExampleScenario.node[20].appl generatedWSMs 1
scalar RSUExampleScenario.node[20].appl receivedWSMs 120
scalar RSUExampleScenario.node[20].appl generatedBSMs 1038
scalar RSUExampleScenario.node[20].appl receivedBSMs 67670
scalar RSUExampleScenario.node[20].appl generatedWSAs 0
scalar RSUExampleScenario.node[20].appl receivedWSAs 0
scalar RSUExampleScenario.node[20].nic.phy80211p busyTime 0.071566782273693
scalar RSUExampleScenario.node[20].nic.mac1609_4 ReceivedUnicastPackets 0
scalar RSUExampleScenario.node[20].nic.mac1609_4 ReceivedBroadcasts 67790
scalar RSUExampleScenario.node[20].nic.mac1609_4 SentPackets 1039
scalar RSUExampleScenario.node[20].nic.mac1609_4 SentAcknowledgements 0
scalar RSUExampleScenario.node[20].nic.mac1609_4 RetriesExceeded 0
scalar RSUExampleScenario.node[20].nic.mac1609_4 SNIRLostPackets 3489
scalar RSUExampleScenario.node[20].nic.mac1609_4 RXTXLostPackets 0
scalar RSUExampleScenario.node[20].nic.mac1609_4 TotalLostPackets 3489
scalar RSUExampleScenario.node[20].nic.mac1609_4 DroppedPacketsInMac 0
scalar RSUExampleScenario.node[20].nic.mac1609_4 TooLittleTime 0
scalar RSUExampleScenario.node[20].nic.mac1609_4 TimesIntoBackoff 1039
scalar RSUExampleScenario.node[20].nic.mac1609_4 SlotsBackoff 1544
scalar RSUExampleScenario.node[20].nic.mac1609_4 NumInternalContention 0
scalar RSUExampleScenario.node[20].nic.mac1609_4 totalBusyTime 7.447767
scalar RSUExampleScenario.node[20].nic.mac1609_4 retriesExceeded:count 0
attr source org_car2x_veins_modules_mac_sigRetriesExceeded
scalar RSUExampleScenario.node[20].nic.mac1609_4 sentAcks:count 0
attr source org_car2x_veins_modules_mac_sigSentAck
scalar RSUExampleScenario.node[20].nic.mac1609_4 sentPackets:count 1039
attr source org_car2x_veins_modules_mac_sigSentPacket
scalar RSUExampleScenario.node[20].nic.mac1609_4 collisions:count 0
attr source org_car2x_veins_modules_mac_sigCollision
scalar RSUExampleScenario.node[20].nic.mac1609_4 channelBusy:timeavg 0.071751127167719
attr source org_car2x_veins_modules_mac_sigChannelBusy
scalar RSUExampleScenario.node[20].veinsmobility startTime 16.2
scalar RSUExampleScenario.node[20].veinsmobility totalTime 103.8
scalar RSUExampleScenario.node[20].veinsmobility stopTime 120
scalar RSUExampleScenario.node[20].veinsmobility minSpeed 0.084528661248938
scalar RSUExampleScenario.node[20].veinsmobility maxSpeed 7.6674414580181
scalar RSUExampleScenario.node[20].veinsmobility totalDistance 608.44273315339
scalar RSUExampleScenario.node[20].veinsmobility totalCO2Emission 206.29097643635
scalar RSUExampleScenario.node[21].appl generatedWSMs 1
scalar RSUExampleScenario.node[21].appl receivedWSMs 120
scalar RSUExampleScenario.node[21].appl generatedBSMs 1038
scalar RSUExampleScenario.node[21].appl receivedBSMs 69698
scalar RSUExampleScenario.node[21].appl generatedWSAs 0
scalar RSUExampleScenario.node[21].appl receivedWSAs 0
scalar RSUExampleScenario.node[21].nic.phy80211p busyTime 0.071566782273693
scalar RSUExampleScenario.node[21].nic.mac1609_4 ReceivedUnicastPackets 0
scalar RSUExampleScenario.node[21].nic.mac1609_4 ReceivedBroadcasts 69818
scalar RSUExampleScenario.node[21].nic.mac1609_4 SentPackets 1039
scalar RSUExampleScenario.node[21].nic.mac1609_4 SentAcknowledgements 0
scalar RSUExampleScenario.node[21].nic.mac1609_4 RetriesExceeded 0
scalar RSUExampleScenario.node[21].nic.mac1609_4 SNIRLostPackets 1461
scalar RSUExampleScenario.node[21].nic.mac1609_4 RXTXLostPackets 0
scalar RSUExampleScenario.node[21].nic.mac1609_4 TotalLostPackets 1461
scalar RSUExampleScenario.node[21].nic.mac1609_4 DroppedPacketsInMac 0
scalar RSUExampleScenario.node[21].nic.mac1609_4 TooLittleTime 0
scalar RSUExampleScenario.node[21].nic.mac1609_4 TimesIntoBackoff 1039
scalar RSUExampleScenario.node[21].nic.mac1609_4 SlotsBackoff 1572
scalar RSUExampleScenario.node[21].nic.mac1609_4 NumInternalContention 0
scalar RSUExampleScenario.node[21].nic.mac1609_4 totalBusyTime 7.447767
scalar RSUExampleScenario.node[21].nic.mac1609_4 retriesExceeded:count 0
attr source org_car2x_veins_modules_mac_sigRetriesExceeded
scalar RSUExampleScenario.node[21].nic.mac1609_4 sentAcks:count 0
attr source org_car2x_veins_modules_mac_sigSentAck
scalar RSUExampleScenario.node[21].nic.mac1609_4 sentPackets:count 1039
attr source org_car2x_veins_modules_mac_sigSentPacket
scalar RSUExampleScenario.node[21].nic.mac1609_4 collisions:count 0
attr source org_car2x_veins_modules_mac_sigCollision
scalar RSUExampleScenario.node[21].nic.mac1609_4 channelBusy:timeavg 0.071751127167719
attr source org_car2x_veins_modules_mac_sigChannelBusy
scalar RSUExampleScenario.node[21].veinsmobility startTime 16.2
scalar RSUExampleScenario.node[21].veinsmobility totalTime 103.8
scalar RSUExampleScenario.node[21].veinsmobility stopTime 120
scalar RSUExampleScenario.node[21].veinsmobility minSpeed 0
scalar RSUExampleScenario.node[21].veinsmobility maxSpeed 11.053378526708
scalar RSUExampleScenario.node[21].veinsmobility totalDistance 198.89395238056
scalar RSUExampleScenario.node[21].veinsmobility totalCO2Emission 136.5332990537
scalar RSUExampleScenario.node[23].appl generatedWSMs 1
scalar RSUExampleScenario.node[23].appl receivedWSMs 120
scalar RSUExampleScenario.node[23].appl generatedBSMs 1017
scalar RSUExampleScenario.node[23].appl receivedBSMs 67430
scalar RSUExampleScenario.node[23].appl generatedWSAs 0
scalar RSUExampleScenario.node[23].appl receivedWSAs 0
scalar RSUExampleScenario.node[23].nic.phy80211p busyTime 0.072592566371772
scalar RSUExampleScenario.node[23].nic.mac1609_4 ReceivedUnicastPackets 0
scalar RSUExampleScenario.node[23].nic.mac1609_4 ReceivedBroadcasts 67550
scalar RSUExampleScenario.node[23].nic.mac1609_4 SentPackets 1018
scalar RSUExampleScenario.node[23].nic.mac1609_4 SentAcknowledgements 0
scalar RSUExampleScenario.node[23].nic.mac1609_4 RetriesExceeded 0
scalar RSUExampleScenario.node[23].nic.mac1609_4 SNIRLostPackets 3287
scalar RSUExampleScenario.node[23].nic.mac1609_4 RXTXLostPackets 0
scalar RSUExampleScenario.node[23].nic.mac1609_4 TotalLostPackets 3287
scalar RSUExampleScenario.node[23].nic.mac1609_4 DroppedPacketsInMac 0
scalar RSUExampleScenario.node[23].nic.mac1609_4 TooLittleTime 0
scalar RSUExampleScenario.node[23].nic.mac1609_4 TimesIntoBackoff 1018
scalar RSUExampleScenario.node[23].nic.mac1609_4 SlotsBackoff 1545
scalar RSUExampleScenario.node[23].nic.mac1609_4 NumInternalContention 0
scalar RSUExampleScenario.node[23].nic.mac1609_4 totalBusyTime 7.399594
scalar RSUExampleScenario.node[23].nic.mac1609_4 retriesExceeded:count 0
attr source org_car2x_veins_modules_mac_sigRetriesExceeded
scalar RSUExampleScenario.node[23].nic.mac1609_4 sentAcks:count 0
attr source org_car2x_veins_modules_mac_sigSentAck
scalar RSUExampleScenario.node[23].nic.mac1609_4 sentPackets:count 1018
attr source org_car2x_veins_modules_mac_sigSentPacket
scalar RSUExampleScenario.node[23].nic.mac1609_4 collisions:count 0
attr source org_car2x_veins_modules_mac_sigCollision
scalar RSUExampleScenario.node[23].nic.mac1609_4 channelBusy:timeavg 0.072759036381604
attr source org_car2x_veins_modules_mac_sigChannelBusy
scalar RSUExampleScenario.node[23].veinsmobility startTime 18.3
scalar RSUExampleScenario.node[23].veinsmobility totalTime 101.7
scalar RSUExampleScenario.node[23].veinsmobility stopTime 120
scalar RSUExampleScenario.node[23].veinsmobility minSpeed 0.13402764079867
scalar RSUExampleScenario.node[23].veinsmobility maxSpeed 7.6592686485379
scalar RSUExampleScenario.node[23].veinsmobility totalDistance 593.44413539619
scalar RSUExampleScenario.node[23].veinsmobility totalCO2Emission 203.75952515575
scalar RSUExampleScenario.node[24].appl generatedWSMs 1
scalar RSUExampleScenario.node[24].appl receivedWSMs 120
scalar RSUExampleScenario.node[24].appl generatedBSMs 1000
scalar RSUExampleScenario.node[24].appl receivedBSMs 68863
scalar RSUExampleScenario.node[24].appl generatedWSAs 0
scalar RSUExampleScenario.node[24].appl receivedWSAs 0
scalar RSUExampleScenario.node[24].nic.phy80211p busyTime 0.073420000000091
scalar RSUExampleScenario.node[24].nic.mac1609_4 ReceivedUnicastPackets 0
scalar RSUExampleScenario.node[24].nic.mac1609_4 ReceivedBroadcasts 68983
scalar RSUExampleScenario.node[24].nic.mac1609_4 SentPackets 1001
scalar RSUExampleScenario.node[24].nic.mac1609_4 SentAcknowledgements 0
scalar RSUExampleScenario.node[24].nic.mac1609_4 RetriesExceeded 0
scalar RSUExampleScenario.node[24].nic.mac1609_4 SNIRLostPackets 1463
scalar RSUExampleScenario.node[24].nic.mac1609_4 RXTXLostPackets 0
scalar RSUExampleScenario.node[24].nic.mac1609_4 TotalLostPackets 1463
scalar RSUExampleScenario.node[24].nic.mac1609_4 DroppedPacketsInMac 0
scalar RSUExampleScenario.node[24].nic.mac1609_4 TooLittleTime 0
scalar RSUExampleScenario.node[24].nic.mac1609_4 TimesIntoBackoff 1001
scalar RSUExampleScenario.node[24].nic.mac1609_4 SlotsBackoff 1495
scalar RSUExampleScenario.node[24].nic.mac1609_4 NumInternalContention 0
scalar RSUExampleScenario.node[24].nic.mac1609_4 totalBusyTime 7.357145
scalar RSUExampleScenario.node[24].nic.mac1609_4 retriesExceeded:count 0
attr source org_car2x_veins_modules_mac_sigRetriesExceeded
scalar RSUExampleScenario.node[24].nic.mac1609_4 sentAcks:count 0
attr source org_car2x_veins_modules_mac_sigSentAck
scalar RSUExampleScenario.node[24].nic.mac1609_4 sentPackets:count 1001
attr source org_car2x_veins_modules_mac_sigSentPacket
scalar RSUExampleScenario.node[24].nic.mac1609_4 collisions:count 0
attr source org_car2x_veins_modules_mac_sigCollision
scalar RSUExampleScenario.node[24].nic.mac1609_4 channelBusy:timeavg 0.073571450000089
attr source org_car2x_veins_modules_mac_sigChannelBusy
scalar RSUExampleScenario.node[24].veinsmobility startTime 20
scalar RSUExampleScenario.node[24].veinsmobility totalTime 100
scalar RSUExampleScenario.node[24].veinsmobility stopTime 120
scalar RSUExampleScenario.node[24].veinsmobility minSpeed 0
scalar RSUExampleScenario.node[24].veinsmobility maxSpeed 10.046550686563
scalar RSUExampleScenario.node[24].veinsmobility totalDistance 223.59698014695
scalar RSUExampleScenario.node[24].veinsmobility totalCO2Emission 138.13898961631
scalar RSUExampleScenario.node[25].appl generatedWSMs 1
scalar RSUExampleScenario.node[25].appl receivedWSMs 120
scalar RSUExampleScenario.node[25].appl generatedBSMs 996
scalar RSUExampleScenario.node[25].appl receivedBSMs 67190
scalar RSUExampleScenario.node[25].appl generatedWSAs 0
scalar RSUExampleScenario.node[25].appl receivedWSAs 0
scalar RSUExampleScenario.node[25].nic.phy80211p busyTime 0.073614618473987
scalar RSUExampleScenario.node[25].nic.mac1609_4 ReceivedUnicastPackets 0
scalar RSUExampleScenario.node[25].nic.mac1609_4 ReceivedBroadcasts 67310
scalar RSUExampleScenario.node[25].nic.mac1609_4 SentPackets 997
scalar RSUExampleScenario.node[25].nic.mac1609_4 SentAcknowledgements 0
scalar RSUExampleScenario.node[25].nic.mac1609_4 RetriesExceeded 0
scalar RSUExampleScenario.node[25].nic.mac1609_4 SNIRLostPackets 3040
scalar RSUExampleScenario.node[25].nic.mac1609_4 RXTXLostPackets 0
scalar RSUExampleScenario.node[25].nic.mac1609_4 TotalLostPackets 3040
scalar RSUExampleScenario.node[25].nic.mac1609_4 DroppedPacketsInMac 0
scalar RSUExampleScenario.node[25].nic.mac1609_4 TooLittleTime 0
scalar RSUExampleScenario.node[25].nic.mac1609_4 TimesIntoBackoff 997
scalar RSUExampleScenario.node[25].nic.mac1609_4 SlotsBackoff 1523
scalar RSUExampleScenario.node[25].nic.mac1609_4 NumInternalContention 0
scalar RSUExampleScenario.node[25].nic.mac1609_4 totalBusyTime 7.346741
scalar RSUExampleScenario.node[25].nic.mac1609_4 retriesExceeded:count 0
attr source org_car2x_veins_modules_mac_sigRetriesExceeded
scalar RSUExampleScenario.node[25].nic.mac1609_4 sentAcks:count 0
attr source org_car2x_veins_modules_mac_sigSentAck
scalar RSUExampleScenario.node[25].nic.mac1609_4 sentPackets:count 997
attr source org_car2x_veins_modules_mac_sigSentPacket
scalar RSUExampleScenario.node[25].nic.mac1609_4 collisions:count 0
attr source org_car2x_veins_modules_mac_sigCollision
scalar RSUExampleScenario.node[25].nic.mac1609_4 channelBusy:timeavg 0.073762459839447
attr source org_car2x_veins_modules_mac_sigChannelBusy
scalar RSUExampleScenario.node[25].veinsmobility startTime 20.4
scalar RSUExampleScenario.node[25].veinsmobility totalTime 99.6
scalar RSUExampleScenario.node[25].veinsmobility stopTime 120
scalar RSUExampleScenario.node[25].veinsmobility minSpeed 0.19303718961227
scalar RSUExampleScenario.node[25].veinsmobility maxSpeed 7.7077922319679
scalar RSUExampleScenario.node[25].veinsmobility totalDistance 578.39071192333
[...]
scalar RSUExampleScenario.node[119].nic.mac1609_4 ReceivedUnicastPackets 0
scalar RSUExampleScenario.node[119].nic.mac1609_4 ReceivedBroadcasts 9048
scalar RSUExampleScenario.node[119].nic.mac1609_4 SentPackets 92
scalar RSUExampleScenario.node[119].nic.mac1609_4 SentAcknowledgements 0
scalar RSUExampleScenario.node[119].nic.mac1609_4 RetriesExceeded 0
scalar RSUExampleScenario.node[119].nic.mac1609_4 SNIRLostPackets 993
scalar RSUExampleScenario.node[119].nic.mac1609_4 RXTXLostPackets 74
scalar RSUExampleScenario.node[119].nic.mac1609_4 TotalLostPackets 1067
scalar RSUExampleScenario.node[119].nic.mac1609_4 DroppedPacketsInMac 0
scalar RSUExampleScenario.node[119].nic.mac1609_4 TooLittleTime 0
scalar RSUExampleScenario.node[119].nic.mac1609_4 TimesIntoBackoff 93
scalar RSUExampleScenario.node[119].nic.mac1609_4 SlotsBackoff 150
scalar RSUExampleScenario.node[119].nic.mac1609_4 NumInternalContention 0
scalar RSUExampleScenario.node[119].nic.mac1609_4 totalBusyTime 1.032172
scalar RSUExampleScenario.node[119].nic.mac1609_4 retriesExceeded:count 0
attr source org_car2x_veins_modules_mac_sigRetriesExceeded
scalar RSUExampleScenario.node[119].nic.mac1609_4 sentAcks:count 0
attr source org_car2x_veins_modules_mac_sigSentAck
scalar RSUExampleScenario.node[119].nic.mac1609_4 sentPackets:count 92
attr source org_car2x_veins_modules_mac_sigSentPacket
scalar RSUExampleScenario.node[119].nic.mac1609_4 collisions:count 0
attr source org_car2x_veins_modules_mac_sigCollision
scalar RSUExampleScenario.node[119].nic.mac1609_4 channelBusy:timeavg 0.11342549450549
attr source org_car2x_veins_modules_mac_sigChannelBusy
scalar RSUExampleScenario.node[119].veinsmobility startTime 110.9
scalar RSUExampleScenario.node[119].veinsmobility totalTime 9.1
scalar RSUExampleScenario.node[119].veinsmobility stopTime 120
scalar RSUExampleScenario.node[119].veinsmobility minSpeed 1.993972114991
scalar RSUExampleScenario.node[119].veinsmobility maxSpeed 3.4525607634947
scalar RSUExampleScenario.node[119].veinsmobility totalDistance 26.472409876721
scalar RSUExampleScenario.node[119].veinsmobility totalCO2Emission 12.965965839232
scalar RSUExampleScenario.node[120].appl generatedWSMs 1
scalar RSUExampleScenario.node[120].appl receivedWSMs 5
scalar RSUExampleScenario.node[120].appl generatedBSMs 71
scalar RSUExampleScenario.node[120].appl receivedBSMs 6976
scalar RSUExampleScenario.node[120].appl generatedWSAs 0
scalar RSUExampleScenario.node[120].appl receivedWSAs 0
scalar RSUExampleScenario.node[120].nic.phy80211p busyTime 0.11607211267605
scalar RSUExampleScenario.node[120].nic.mac1609_4 ReceivedUnicastPackets 0
scalar RSUExampleScenario.node[120].nic.mac1609_4 ReceivedBroadcasts 6981
scalar RSUExampleScenario.node[120].nic.mac1609_4 SentPackets 72
scalar RSUExampleScenario.node[120].nic.mac1609_4 SentAcknowledgements 0
scalar RSUExampleScenario.node[120].nic.mac1609_4 RetriesExceeded 0
scalar RSUExampleScenario.node[120].nic.mac1609_4 SNIRLostPackets 937
scalar RSUExampleScenario.node[120].nic.mac1609_4 RXTXLostPackets 0
scalar RSUExampleScenario.node[120].nic.mac1609_4 TotalLostPackets 937
scalar RSUExampleScenario.node[120].nic.mac1609_4 DroppedPacketsInMac 0
scalar RSUExampleScenario.node[120].nic.mac1609_4 TooLittleTime 0
scalar RSUExampleScenario.node[120].nic.mac1609_4 TimesIntoBackoff 72
scalar RSUExampleScenario.node[120].nic.mac1609_4 SlotsBackoff 93
scalar RSUExampleScenario.node[120].nic.mac1609_4 NumInternalContention 0
scalar RSUExampleScenario.node[120].nic.mac1609_4 totalBusyTime 0.80684
scalar RSUExampleScenario.node[120].nic.mac1609_4 retriesExceeded:count 0
attr source org_car2x_veins_modules_mac_sigRetriesExceeded
scalar RSUExampleScenario.node[120].nic.mac1609_4 sentAcks:count 0
attr source org_car2x_veins_modules_mac_sigSentAck
scalar RSUExampleScenario.node[120].nic.mac1609_4 sentPackets:count 72
attr source org_car2x_veins_modules_mac_sigSentPacket
scalar RSUExampleScenario.node[120].nic.mac1609_4 collisions:count 0
attr source org_car2x_veins_modules_mac_sigCollision
scalar RSUExampleScenario.node[120].nic.mac1609_4 channelBusy:timeavg 0.11363943661971
attr source org_car2x_veins_modules_mac_sigChannelBusy
scalar RSUExampleScenario.node[120].veinsmobility startTime 112.9
scalar RSUExampleScenario.node[120].veinsmobility totalTime 7.1
scalar RSUExampleScenario.node[120].veinsmobility stopTime 120
scalar RSUExampleScenario.node[120].veinsmobility minSpeed 1.1641204862473
scalar RSUExampleScenario.node[120].veinsmobility maxSpeed 3.0010175465027
scalar RSUExampleScenario.node[120].veinsmobility totalDistance 18.150649908787
scalar RSUExampleScenario.node[120].veinsmobility totalCO2Emission 10.314540550658
scalar RSUExampleScenario.node[121].appl generatedWSMs 1
scalar RSUExampleScenario.node[121].appl receivedWSMs 5
scalar RSUExampleScenario.node[121].appl generatedBSMs 64
scalar RSUExampleScenario.node[121].appl receivedBSMs 6397
scalar RSUExampleScenario.node[121].appl generatedWSAs 0
scalar RSUExampleScenario.node[121].appl receivedWSAs 0
scalar RSUExampleScenario.node[121].nic.phy80211p busyTime 0.11570249999999
scalar RSUExampleScenario.node[121].nic.mac1609_4 ReceivedUnicastPackets 0
scalar RSUExampleScenario.node[121].nic.mac1609_4 ReceivedBroadcasts 6402
scalar RSUExampleScenario.node[121].nic.mac1609_4 SentPackets 65
scalar RSUExampleScenario.node[121].nic.mac1609_4 SentAcknowledgements 0
scalar RSUExampleScenario.node[121].nic.mac1609_4 RetriesExceeded 0
scalar RSUExampleScenario.node[121].nic.mac1609_4 SNIRLostPackets 712
scalar RSUExampleScenario.node[121].nic.mac1609_4 RXTXLostPackets 34
scalar RSUExampleScenario.node[121].nic.mac1609_4 TotalLostPackets 746
scalar RSUExampleScenario.node[121].nic.mac1609_4 DroppedPacketsInMac 0
scalar RSUExampleScenario.node[121].nic.mac1609_4 TooLittleTime 0
scalar RSUExampleScenario.node[121].nic.mac1609_4 TimesIntoBackoff 65
scalar RSUExampleScenario.node[121].nic.mac1609_4 SlotsBackoff 108
scalar RSUExampleScenario.node[121].nic.mac1609_4 NumInternalContention 0
scalar RSUExampleScenario.node[121].nic.mac1609_4 totalBusyTime 0.728105002093
scalar RSUExampleScenario.node[121].nic.mac1609_4 retriesExceeded:count 0
attr source org_car2x_veins_modules_mac_sigRetriesExceeded
scalar RSUExampleScenario.node[121].nic.mac1609_4 sentAcks:count 0
attr source org_car2x_veins_modules_mac_sigSentAck
scalar RSUExampleScenario.node[121].nic.mac1609_4 sentPackets:count 65
attr source org_car2x_veins_modules_mac_sigSentPacket
scalar RSUExampleScenario.node[121].nic.mac1609_4 collisions:count 0
attr source org_car2x_veins_modules_mac_sigCollision
scalar RSUExampleScenario.node[121].nic.mac1609_4 channelBusy:timeavg 0.11376640657703
attr source org_car2x_veins_modules_mac_sigChannelBusy
scalar RSUExampleScenario.node[121].veinsmobility startTime 113.6
scalar RSUExampleScenario.node[121].veinsmobility totalTime 6.4
scalar RSUExampleScenario.node[121].veinsmobility stopTime 120
scalar RSUExampleScenario.node[121].veinsmobility minSpeed 1.3432125699407
scalar RSUExampleScenario.node[121].veinsmobility maxSpeed 5.4221970776091
scalar RSUExampleScenario.node[121].veinsmobility totalDistance 27.981846393357
scalar RSUExampleScenario.node[121].veinsmobility totalCO2Emission 11.8959270893
scalar RSUExampleScenario.node[122].appl generatedWSMs 1
scalar RSUExampleScenario.node[122].appl receivedWSMs 5
scalar RSUExampleScenario.node[122].appl generatedBSMs 63
scalar RSUExampleScenario.node[122].appl receivedBSMs 6297
scalar RSUExampleScenario.node[122].appl generatedWSAs 0
scalar RSUExampleScenario.node[122].appl receivedWSAs 0
scalar RSUExampleScenario.node[122].nic.phy80211p busyTime 0.11626793650793
scalar RSUExampleScenario.node[122].nic.mac1609_4 ReceivedUnicastPackets 0
scalar RSUExampleScenario.node[122].nic.mac1609_4 ReceivedBroadcasts 6302
scalar RSUExampleScenario.node[122].nic.mac1609_4 SentPackets 64
scalar RSUExampleScenario.node[122].nic.mac1609_4 SentAcknowledgements 0
scalar RSUExampleScenario.node[122].nic.mac1609_4 RetriesExceeded 0
scalar RSUExampleScenario.node[122].nic.mac1609_4 SNIRLostPackets 735
scalar RSUExampleScenario.node[122].nic.mac1609_4 RXTXLostPackets 0
scalar RSUExampleScenario.node[122].nic.mac1609_4 TotalLostPackets 735
scalar RSUExampleScenario.node[122].nic.mac1609_4 DroppedPacketsInMac 0
scalar RSUExampleScenario.node[122].nic.mac1609_4 TooLittleTime 0
scalar RSUExampleScenario.node[122].nic.mac1609_4 TimesIntoBackoff 64
scalar RSUExampleScenario.node[122].nic.mac1609_4 SlotsBackoff 103
scalar RSUExampleScenario.node[122].nic.mac1609_4 NumInternalContention 0
scalar RSUExampleScenario.node[122].nic.mac1609_4 totalBusyTime 0.716872
scalar RSUExampleScenario.node[122].nic.mac1609_4 retriesExceeded:count 0
attr source org_car2x_veins_modules_mac_sigRetriesExceeded
scalar RSUExampleScenario.node[122].nic.mac1609_4 sentAcks:count 0
attr source org_car2x_veins_modules_mac_sigSentAck
scalar RSUExampleScenario.node[122].nic.mac1609_4 sentPackets:count 64
attr source org_car2x_veins_modules_mac_sigSentPacket
scalar RSUExampleScenario.node[122].nic.mac1609_4 collisions:count 0
attr source org_car2x_veins_modules_mac_sigCollision
scalar RSUExampleScenario.node[122].nic.mac1609_4 channelBusy:timeavg 0.1137892063492
attr source org_car2x_veins_modules_mac_sigChannelBusy
scalar RSUExampleScenario.node[122].veinsmobility startTime 113.7
scalar RSUExampleScenario.node[122].veinsmobility totalTime 6.3
scalar RSUExampleScenario.node[122].veinsmobility stopTime 120
scalar RSUExampleScenario.node[122].veinsmobility minSpeed 1.5773379104363
scalar RSUExampleScenario.node[122].veinsmobility maxSpeed 2.991855876205
scalar RSUExampleScenario.node[122].veinsmobility totalDistance 16.313206860388
scalar RSUExampleScenario.node[122].veinsmobility totalCO2Emission 8.9514214754167
scalar RSUExampleScenario.node[123].appl generatedWSMs 0
scalar RSUExampleScenario.node[123].appl receivedWSMs 0
scalar RSUExampleScenario.node[123].appl generatedBSMs 38
scalar RSUExampleScenario.node[123].appl receivedBSMs 3770
scalar RSUExampleScenario.node[123].appl generatedWSAs 0
scalar RSUExampleScenario.node[123].appl receivedWSAs 0
scalar RSUExampleScenario.node[123].nic.phy80211p busyTime 0.11648
scalar RSUExampleScenario.node[123].nic.mac1609_4 ReceivedUnicastPackets 0
scalar RSUExampleScenario.node[123].nic.mac1609_4 ReceivedBroadcasts 3770
scalar RSUExampleScenario.node[123].nic.mac1609_4 SentPackets 38
scalar RSUExampleScenario.node[123].nic.mac1609_4 SentAcknowledgements 0
scalar RSUExampleScenario.node[123].nic.mac1609_4 RetriesExceeded 0
scalar RSUExampleScenario.node[123].nic.mac1609_4 SNIRLostPackets 486
scalar RSUExampleScenario.node[123].nic.mac1609_4 RXTXLostPackets 0
scalar RSUExampleScenario.node[123].nic.mac1609_4 TotalLostPackets 486
scalar RSUExampleScenario.node[123].nic.mac1609_4 DroppedPacketsInMac 0
scalar RSUExampleScenario.node[123].nic.mac1609_4 TooLittleTime 0
scalar RSUExampleScenario.node[123].nic.mac1609_4 TimesIntoBackoff 38
scalar RSUExampleScenario.node[123].nic.mac1609_4 SlotsBackoff 43
scalar RSUExampleScenario.node[123].nic.mac1609_4 NumInternalContention 0
scalar RSUExampleScenario.node[123].nic.mac1609_4 totalBusyTime 0.433926
scalar RSUExampleScenario.node[123].nic.mac1609_4 retriesExceeded:count 0
attr source org_car2x_veins_modules_mac_sigRetriesExceeded
scalar RSUExampleScenario.node[123].nic.mac1609_4 sentAcks:count 0
attr source org_car2x_veins_modules_mac_sigSentAck
scalar RSUExampleScenario.node[123].nic.mac1609_4 sentPackets:count 38
attr source org_car2x_veins_modules_mac_sigSentPacket
scalar RSUExampleScenario.node[123].nic.mac1609_4 collisions:count 0
attr source org_car2x_veins_modules_mac_sigCollision
scalar RSUExampleScenario.node[123].nic.mac1609_4 channelBusy:timeavg 0.11419105263157
attr source org_car2x_veins_modules_mac_sigChannelBusy
scalar RSUExampleScenario.node[123].veinsmobility startTime 116.2
scalar RSUExampleScenario.node[123].veinsmobility totalTime 3.8
scalar RSUExampleScenario.node[123].veinsmobility stopTime 120
scalar RSUExampleScenario.node[123].veinsmobility minSpeed 0.95038253176447
scalar RSUExampleScenario.node[123].veinsmobility maxSpeed 2.5866838717181
scalar RSUExampleScenario.node[123].veinsmobility totalDistance 8.0435480338459
scalar RSUExampleScenario.node[123].veinsmobility totalCO2Emission 5.415356354352
scalar RSUExampleScenario.node[124].appl generatedWSMs 0
scalar RSUExampleScenario.node[124].appl receivedWSMs 0
scalar RSUExampleScenario.node[124].appl generatedBSMs 32
scalar RSUExampleScenario.node[124].appl receivedBSMs 3220
scalar RSUExampleScenario.node[124].appl generatedWSAs 0
scalar RSUExampleScenario.node[124].appl receivedWSAs 0
scalar RSUExampleScenario.node[124].nic.phy80211p busyTime 0.116675
scalar RSUExampleScenario.node[124].nic.mac1609_4 ReceivedUnicastPackets 0
scalar RSUExampleScenario.node[124].nic.mac1609_4 ReceivedBroadcasts 3220
scalar RSUExampleScenario.node[124].nic.mac1609_4 SentPackets 32
scalar RSUExampleScenario.node[124].nic.mac1609_4 SentAcknowledgements 0
scalar RSUExampleScenario.node[124].nic.mac1609_4 RetriesExceeded 0
scalar RSUExampleScenario.node[124].nic.mac1609_4 SNIRLostPackets 370
scalar RSUExampleScenario.node[124].nic.mac1609_4 RXTXLostPackets 0
scalar RSUExampleScenario.node[124].nic.mac1609_4 TotalLostPackets 370
scalar RSUExampleScenario.node[124].nic.mac1609_4 DroppedPacketsInMac 0
scalar RSUExampleScenario.node[124].nic.mac1609_4 TooLittleTime 0
scalar RSUExampleScenario.node[124].nic.mac1609_4 TimesIntoBackoff 32
scalar RSUExampleScenario.node[124].nic.mac1609_4 SlotsBackoff 50
scalar RSUExampleScenario.node[124].nic.mac1609_4 NumInternalContention 0
scalar RSUExampleScenario.node[124].nic.mac1609_4 totalBusyTime 0.366216
scalar RSUExampleScenario.node[124].nic.mac1609_4 retriesExceeded:count 0
attr source org_car2x_veins_modules_mac_sigRetriesExceeded
scalar RSUExampleScenario.node[124].nic.mac1609_4 sentAcks:count 0
attr source org_car2x_veins_modules_mac_sigSentAck
scalar RSUExampleScenario.node[124].nic.mac1609_4 sentPackets:count 32
attr source org_car2x_veins_modules_mac_sigSentPacket
scalar RSUExampleScenario.node[124].nic.mac1609_4 collisions:count 0
attr source org_car2x_veins_modules_mac_sigCollision
scalar RSUExampleScenario.node[124].nic.mac1609_4 channelBusy:timeavg 0.1144425
attr source org_car2x_veins_modules_mac_sigChannelBusy
scalar RSUExampleScenario.node[124].veinsmobility startTime 116.8
scalar RSUExampleScenario.node[124].veinsmobility totalTime 3.2
scalar RSUExampleScenario.node[124].veinsmobility stopTime 120
scalar RSUExampleScenario.node[124].veinsmobility minSpeed 1.052024650099
scalar RSUExampleScenario.node[124].veinsmobility maxSpeed 4.9545006918943
scalar RSUExampleScenario.node[124].veinsmobility totalDistance 13.266152912485
scalar RSUExampleScenario.node[124].veinsmobility totalCO2Emission 6.84533040348
scalar RSUExampleScenario.node[125].appl generatedWSMs 0
scalar RSUExampleScenario.node[125].appl receivedWSMs 0
scalar RSUExampleScenario.node[125].appl generatedBSMs 31
scalar RSUExampleScenario.node[125].appl receivedBSMs 3123
scalar RSUExampleScenario.node[125].appl generatedWSAs 0
scalar RSUExampleScenario.node[125].appl receivedWSAs 0
scalar RSUExampleScenario.node[125].nic.phy80211p busyTime 0.11668129032258
scalar RSUExampleScenario.node[125].nic.mac1609_4 ReceivedUnicastPackets 0
scalar RSUExampleScenario.node[125].nic.mac1609_4 ReceivedBroadcasts 3123
scalar RSUExampleScenario.node[125].nic.mac1609_4 SentPackets 31
scalar RSUExampleScenario.node[125].nic.mac1609_4 SentAcknowledgements 0
scalar RSUExampleScenario.node[125].nic.mac1609_4 RetriesExceeded 0
scalar RSUExampleScenario.node[125].nic.mac1609_4 SNIRLostPackets 355
scalar RSUExampleScenario.node[125].nic.mac1609_4 RXTXLostPackets 0
scalar RSUExampleScenario.node[125].nic.mac1609_4 TotalLostPackets 355
scalar RSUExampleScenario.node[125].nic.mac1609_4 DroppedPacketsInMac 0
scalar RSUExampleScenario.node[125].nic.mac1609_4 TooLittleTime 0
scalar RSUExampleScenario.node[125].nic.mac1609_4 TimesIntoBackoff 31
scalar RSUExampleScenario.node[125].nic.mac1609_4 SlotsBackoff 39
scalar RSUExampleScenario.node[125].nic.mac1609_4 NumInternalContention 0
scalar RSUExampleScenario.node[125].nic.mac1609_4 totalBusyTime 0.354775
scalar RSUExampleScenario.node[125].nic.mac1609_4 retriesExceeded:count 0
attr source org_car2x_veins_modules_mac_sigRetriesExceeded
scalar RSUExampleScenario.node[125].nic.mac1609_4 sentAcks:count 0
attr source org_car2x_veins_modules_mac_sigSentAck
scalar RSUExampleScenario.node[125].nic.mac1609_4 sentPackets:count 31
attr source org_car2x_veins_modules_mac_sigSentPacket
scalar RSUExampleScenario.node[125].nic.mac1609_4 collisions:count 0
attr source org_car2x_veins_modules_mac_sigCollision
scalar RSUExampleScenario.node[125].nic.mac1609_4 channelBusy:timeavg 0.11444354838709
attr source org_car2x_veins_modules_mac_sigChannelBusy
scalar RSUExampleScenario.node[125].veinsmobility startTime 116.9
scalar RSUExampleScenario.node[125].veinsmobility totalTime 3.1
scalar RSUExampleScenario.node[125].veinsmobility stopTime 120
scalar RSUExampleScenario.node[125].veinsmobility minSpeed 1.3634328928684
scalar RSUExampleScenario.node[125].veinsmobility maxSpeed 2.45303502451
scalar RSUExampleScenario.node[125].veinsmobility totalDistance 6.3489540387523
scalar RSUExampleScenario.node[125].veinsmobility totalCO2Emission 4.3410955954322
scalar RSUExampleScenario.node[126].appl generatedWSMs 0
scalar RSUExampleScenario.node[126].appl receivedWSMs 0
scalar RSUExampleScenario.node[126].appl generatedBSMs 2
scalar RSUExampleScenario.node[126].appl receivedBSMs 197
scalar RSUExampleScenario.node[126].appl generatedWSAs 0
scalar RSUExampleScenario.node[126].appl receivedWSAs 0
scalar RSUExampleScenario.node[126].nic.phy80211p busyTime 0.11648
scalar RSUExampleScenario.node[126].nic.mac1609_4 ReceivedUnicastPackets 0
scalar RSUExampleScenario.node[126].nic.mac1609_4 ReceivedBroadcasts 197
scalar RSUExampleScenario.node[126].nic.mac1609_4 SentPackets 2
scalar RSUExampleScenario.node[126].nic.mac1609_4 SentAcknowledgements 0
scalar RSUExampleScenario.node[126].nic.mac1609_4 RetriesExceeded 0
scalar RSUExampleScenario.node[126].nic.mac1609_4 SNIRLostPackets 27
scalar RSUExampleScenario.node[126].nic.mac1609_4 RXTXLostPackets 0
scalar RSUExampleScenario.node[126].nic.mac1609_4 TotalLostPackets 27
scalar RSUExampleScenario.node[126].nic.mac1609_4 DroppedPacketsInMac 0
scalar RSUExampleScenario.node[126].nic.mac1609_4 TooLittleTime 0
scalar RSUExampleScenario.node[126].nic.mac1609_4 TimesIntoBackoff 2
scalar RSUExampleScenario.node[126].nic.mac1609_4 SlotsBackoff 2
scalar RSUExampleScenario.node[126].nic.mac1609_4 NumInternalContention 0
scalar RSUExampleScenario.node[126].nic.mac1609_4 totalBusyTime 0.022778
scalar RSUExampleScenario.node[126].nic.mac1609_4 retriesExceeded:count 0
attr source org_car2x_veins_modules_mac_sigRetriesExceeded
scalar RSUExampleScenario.node[126].nic.mac1609_4 sentAcks:count 0
attr source org_car2x_veins_modules_mac_sigSentAck
scalar RSUExampleScenario.node[126].nic.mac1609_4 sentPackets:count 2
attr source org_car2x_veins_modules_mac_sigSentPacket
scalar RSUExampleScenario.node[126].nic.mac1609_4 collisions:count 0
attr source org_car2x_veins_modules_mac_sigCollision
scalar RSUExampleScenario.node[126].nic.mac1609_4 channelBusy:timeavg 0.11389
attr source org_car2x_veins_modules_mac_sigChannelBusy
scalar RSUExampleScenario.node[126].veinsmobility startTime 119.8
scalar RSUExampleScenario.node[126].veinsmobility totalTime 0.2
scalar RSUExampleScenario.node[126].veinsmobility stopTime 120
scalar RSUExampleScenario.node[126].veinsmobility minSpeed 0.76579568658582
scalar RSUExampleScenario.node[126].veinsmobility maxSpeed 0.86546397476717
scalar RSUExampleScenario.node[126].veinsmobility totalDistance 0.16312596613534
scalar RSUExampleScenario.node[126].veinsmobility totalCO2Emission 0.13596948113295

