version 2
run WithBeaconing-0-20251015-16:04:59-5432
attr configname WithBeaconing
attr datetime 20251015-16:04:59
attr experiment WithBeaconing
attr inifile omnetpp.ini
attr iterationvars ""
attr iterationvarsf ""
attr measurement ""
attr network RSUExampleScenario
attr processid 5432
attr repetition 0
attr replication #0
attr resultdir results
attr runnumber 0
attr seedset 210041226
param *.node[*].appl.sendBeacons true
param *.playgroundSizeX 1700m
param *.playgroundSizeY 1700m
param *.playgroundSizeZ 50m
param *.annotations.draw true
param *.manager.updateInterval 0.1s
param *.manager.host "\"localhost\""
param *.manager.port 9999
param *.manager.autoShutdown true
param *.manager.launchConfig "xmldoc(\"simulation_junction.launchd.xml\")"
param *.connectionManager.sendDirect true
param *.connectionManager.maxInterfDist 2600m
param *.connectionManager.drawMaxIntfDist false
param *.**.nic.mac1609_4.useServiceChannel false
param *.**.nic.mac1609_4.txPower 20mW
param *.**.nic.mac1609_4.bitrate 6Mbps
param *.**.nic.phy80211p.minPowerLevel -110dBm
param *.**.nic.phy80211p.useNoiseFloor true
param *.**.nic.phy80211p.noiseFloor -98dBm
param *.**.nic.phy80211p.decider "xmldoc(\"config.xml\")"
param *.**.nic.phy80211p.analogueModels "xmldoc(\"config.xml\")"
param *.**.nic.phy80211p.usePropagationDelay true
param *.**.nic.phy80211p.antenna "xmldoc(\"antenna.xml\", \"/root/Antenna[@id='monopole']\")"
param *.node[*].nic.phy80211p.antennaOffsetY "0 m"
param *.node[*].nic.phy80211p.antennaOffsetZ "1.895 m"
param *.node[*].applType "\"TraCIDemo11p\""
param *.node[*].appl.headerLength "80 bit"
param *.node[*].appl.sendBeacons false
param *.node[*].appl.dataOnSch false
param *.node[*].appl.beaconInterval 0.1s
param **.node[*].appl.dataUserPriority 5
param **.node[*].appl.beaconUserPriority 7
param *.node[*].veinsmobility.x 0
param *.node[*].veinsmobility.y 0
param *.node[*].veinsmobility.z 0
param *.node[*].veinsmobility.setHostSpeed false

scalar RSUExampleScenario.node[0].appl generatedWSMs 1
scalar RSUExampleScenario.node[0].appl receivedWSMs 74
scalar RSUExampleScenario.node[0].appl generatedBSMs 944
scalar RSUExampleScenario.node[0].appl receivedBSMs 41967
scalar RSUExampleScenario.node[0].appl generatedWSAs 0
scalar RSUExampleScenario.node[0].appl receivedWSAs 0
scalar RSUExampleScenario.node[0].nic.phy80211p busyTime 0.05036372881357
scalar RSUExampleScenario.node[0].nic.mac1609_4 ReceivedUnicastPackets 0
scalar RSUExampleScenario.node[0].nic.mac1609_4 ReceivedBroadcasts 42041
scalar RSUExampleScenario.node[0].nic.mac1609_4 SentPackets 945
scalar RSUExampleScenario.node[0].nic.mac1609_4 SentAcknowledgements 0
scalar RSUExampleScenario.node[0].nic.mac1609_4 RetriesExceeded 0
scalar RSUExampleScenario.node[0].nic.mac1609_4 SNIRLostPackets 3563
scalar RSUExampleScenario.node[0].nic.mac1609_4 RXTXLostPackets 0
scalar RSUExampleScenario.node[0].nic.mac1609_4 TotalLostPackets 3563
scalar RSUExampleScenario.node[0].nic.mac1609_4 DroppedPacketsInMac 0
scalar RSUExampleScenario.node[0].nic.mac1609_4 TooLittleTime 0
scalar RSUExampleScenario.node[0].nic.mac1609_4 TimesIntoBackoff 1128
scalar RSUExampleScenario.node[0].nic.mac1609_4 SlotsBackoff 1730
scalar RSUExampleScenario.node[0].nic.mac1609_4 NumInternalContention 0
scalar RSUExampleScenario.node[0].nic.mac1609_4 totalBusyTime 4.831097
scalar RSUExampleScenario.node[0].nic.mac1609_4 retriesExceeded:count 0
attr source org_car2x_veins_modules_mac_sigRetriesExceeded
scalar RSUExampleScenario.node[0].nic.mac1609_4 sentAcks:count 0
attr source org_car2x_veins_modules_mac_sigSentAck
scalar RSUExampleScenario.node[0].nic.mac1609_4 sentPackets:count 945
attr source org_car2x_veins_modules_mac_sigSentPacket
scalar RSUExampleScenario.node[0].nic.mac1609_4 collisions:count 0
attr source org_car2x_veins_modules_mac_sigCollision
scalar RSUExampleScenario.node[0].nic.mac1609_4 channelBusy:timeavg 0.051176875000013
attr source org_car2x_veins_modules_mac_sigChannelBusy
scalar RSUExampleScenario.node[0].veinsmobility startTime 0.1
scalar RSUExampleScenario.node[0].veinsmobility totalTime 94.3
scalar RSUExampleScenario.node[0].veinsmobility stopTime 94.5
scalar RSUExampleScenario.node[0].veinsmobility minSpeed 0
scalar RSUExampleScenario.node[0].veinsmobility maxSpeed 11.163033880936
scalar RSUExampleScenario.node[0].veinsmobility totalDistance 746.36578802673
scalar RSUExampleScenario.node[0].veinsmobility totalCO2Emission 205.46911603866
scalar RSUExampleScenario.node[1].appl generatedWSMs 1
scalar RSUExampleScenario.node[1].appl receivedWSMs 76
scalar RSUExampleScenario.node[1].appl generatedBSMs 970
scalar RSUExampleScenario.node[1].appl receivedBSMs 43876
scalar RSUExampleScenario.node[1].appl generatedWSAs 0
scalar RSUExampleScenario.node[1].appl receivedWSAs 0
scalar RSUExampleScenario.node[1].nic.phy80211p busyTime 0.051664659793833
scalar RSUExampleScenario.node[1].nic.mac1609_4 ReceivedUnicastPackets 0
scalar RSUExampleScenario.node[1].nic.mac1609_4 ReceivedBroadcasts 43952
scalar RSUExampleScenario.node[1].nic.mac1609_4 SentPackets 971
scalar RSUExampleScenario.node[1].nic.mac1609_4 SentAcknowledgements 0
scalar RSUExampleScenario.node[1].nic.mac1609_4 RetriesExceeded 0
scalar RSUExampleScenario.node[1].nic.mac1609_4 SNIRLostPackets 4122
scalar RSUExampleScenario.node[1].nic.mac1609_4 RXTXLostPackets 0
scalar RSUExampleScenario.node[1].nic.mac1609_4 TotalLostPackets 4122
scalar RSUExampleScenario.node[1].nic.mac1609_4 DroppedPacketsInMac 0
scalar RSUExampleScenario.node[1].nic.mac1609_4 TooLittleTime 0
scalar RSUExampleScenario.node[1].nic.mac1609_4 TimesIntoBackoff 971
scalar RSUExampleScenario.node[1].nic.mac1609_4 SlotsBackoff 1512
scalar RSUExampleScenario.node[1].nic.mac1609_4 NumInternalContention 0
scalar RSUExampleScenario.node[1].nic.mac1609_4 totalBusyTime 5.088155
scalar RSUExampleScenario.node[1].nic.mac1609_4 retriesExceeded:count 0
attr source org_car2x_veins_modules_mac_sigRetriesExceeded
scalar RSUExampleScenario.node[1].nic.mac1609_4 sentAcks:count 0
attr source org_car2x_veins_modules_mac_sigSentAck
scalar RSUExampleScenario.node[1].nic.mac1609_4 sentPackets:count 971
attr source org_car2x_veins_modules_mac_sigSentPacket
scalar RSUExampleScenario.node[1].nic.mac1609_4 collisions:count 0
attr source org_car2x_veins_modules_mac_sigCollision
scalar RSUExampleScenario.node[1].nic.mac1609_4 channelBusy:timeavg 0.052455206185588
attr source org_car2x_veins_modules_mac_sigChannelBusy
scalar RSUExampleScenario.node[1].veinsmobility startTime 0.1
scalar RSUExampleScenario.node[1].veinsmobility totalTime 96.9
scalar RSUExampleScenario.node[1].veinsmobility stopTime 97.1
scalar RSUExampleScenario.node[1].veinsmobility minSpeed 0
scalar RSUExampleScenario.node[1].veinsmobility maxSpeed 10.483306091994
scalar RSUExampleScenario.node[1].veinsmobility totalDistance 749.37064143644
scalar RSUExampleScenario.node[1].veinsmobility totalCO2Emission 207.54615027762
scalar RSUExampleScenario.node[7].appl generatedWSMs 1
scalar RSUExampleScenario.node[7].appl receivedWSMs 78
scalar RSUExampleScenario.node[7].appl generatedBSMs 955
scalar RSUExampleScenario.node[7].appl receivedBSMs 45231
scalar RSUExampleScenario.node[7].appl generatedWSAs 0
scalar RSUExampleScenario.node[7].appl receivedWSAs 0
scalar RSUExampleScenario.node[7].nic.phy80211p busyTime 0.054069026178035
scalar RSUExampleScenario.node[7].nic.mac1609_4 ReceivedUnicastPackets 0
scalar RSUExampleScenario.node[7].nic.mac1609_4 ReceivedBroadcasts 45309
scalar RSUExampleScenario.node[7].nic.mac1609_4 SentPackets 956
scalar RSUExampleScenario.node[7].nic.mac1609_4 SentAcknowledgements 0
scalar RSUExampleScenario.node[7].nic.mac1609_4 RetriesExceeded 0
scalar RSUExampleScenario.node[7].nic.mac1609_4 SNIRLostPackets 4224
scalar RSUExampleScenario.node[7].nic.mac1609_4 RXTXLostPackets 0
scalar RSUExampleScenario.node[7].nic.mac1609_4 TotalLostPackets 4224
scalar RSUExampleScenario.node[7].nic.mac1609_4 DroppedPacketsInMac 0
scalar RSUExampleScenario.node[7].nic.mac1609_4 TooLittleTime 0
scalar RSUExampleScenario.node[7].nic.mac1609_4 TimesIntoBackoff 957
scalar RSUExampleScenario.node[7].nic.mac1609_4 SlotsBackoff 1491
scalar RSUExampleScenario.node[7].nic.mac1609_4 NumInternalContention 0
scalar RSUExampleScenario.node[7].nic.mac1609_4 totalBusyTime 5.23558
scalar RSUExampleScenario.node[7].nic.mac1609_4 retriesExceeded:count 0
attr source org_car2x_veins_modules_mac_sigRetriesExceeded
scalar RSUExampleScenario.node[7].nic.mac1609_4 sentAcks:count 0
attr source org_car2x_veins_modules_mac_sigSentAck
scalar RSUExampleScenario.node[7].nic.mac1609_4 sentPackets:count 956
attr source org_car2x_veins_modules_mac_sigSentPacket
scalar RSUExampleScenario.node[7].nic.mac1609_4 collisions:count 0
attr source org_car2x_veins_modules_mac_sigCollision
scalar RSUExampleScenario.node[7].nic.mac1609_4 channelBusy:timeavg 0.054822827225157
attr source org_car2x_veins_modules_mac_sigChannelBusy
scalar RSUExampleScenario.node[7].veinsmobility startTime 3.2
scalar RSUExampleScenario.node[7].veinsmobility totalTime 95.4
scalar RSUExampleScenario.node[7].veinsmobility stopTime 98.7
scalar RSUExampleScenario.node[7].veinsmobility minSpeed 0
scalar RSUExampleScenario.node[7].veinsmobility maxSpeed 11.54157506329
scalar RSUExampleScenario.node[7].veinsmobility totalDistance 748.65479282196
scalar RSUExampleScenario.node[7].veinsmobility totalCO2Emission 226.12076358109
scalar RSUExampleScenario.node[11].appl generatedWSMs 1
scalar RSUExampleScenario.node[11].appl receivedWSMs 77
scalar RSUExampleScenario.node[11].appl generatedBSMs 941
scalar RSUExampleScenario.node[11].appl receivedBSMs 46584
scalar RSUExampleScenario.node[11].appl generatedWSAs 0
scalar RSUExampleScenario.node[11].appl receivedWSAs 0
scalar RSUExampleScenario.node[11].nic.phy80211p busyTime 0.056642550478245
scalar RSUExampleScenario.node[11].nic.mac1609_4 ReceivedUnicastPackets 0
scalar RSUExampleScenario.node[11].nic.mac1609_4 ReceivedBroadcasts 46661
scalar RSUExampleScenario.node[11].nic.mac1609_4 SentPackets 942
scalar RSUExampleScenario.node[11].nic.mac1609_4 SentAcknowledgements 0
scalar RSUExampleScenario.node[11].nic.mac1609_4 RetriesExceeded 0
scalar RSUExampleScenario.node[11].nic.mac1609_4 SNIRLostPackets 4469
scalar RSUExampleScenario.node[11].nic.mac1609_4 RXTXLostPackets 0
scalar RSUExampleScenario.node[11].nic.mac1609_4 TotalLostPackets 4469
scalar RSUExampleScenario.node[11].nic.mac1609_4 DroppedPacketsInMac 0
scalar RSUExampleScenario.node[11].nic.mac1609_4 TooLittleTime 0
scalar RSUExampleScenario.node[11].nic.mac1609_4 TimesIntoBackoff 942
scalar RSUExampleScenario.node[11].nic.mac1609_4 SlotsBackoff 1369
scalar RSUExampleScenario.node[11].nic.mac1609_4 NumInternalContention 0
scalar RSUExampleScenario.node[11].nic.mac1609_4 totalBusyTime 5.395902
scalar RSUExampleScenario.node[11].nic.mac1609_4 retriesExceeded:count 0
attr source org_car2x_veins_modules_mac_sigRetriesExceeded
scalar RSUExampleScenario.node[11].nic.mac1609_4 sentAcks:count 0
attr source org_car2x_veins_modules_mac_sigSentAck
scalar RSUExampleScenario.node[11].nic.mac1609_4 sentPackets:count 942
attr source org_car2x_veins_modules_mac_sigSentPacket
scalar RSUExampleScenario.node[11].nic.mac1609_4 collisions:count 0
attr source org_car2x_veins_modules_mac_sigCollision
scalar RSUExampleScenario.node[11].nic.mac1609_4 channelBusy:timeavg 0.057342210414484
attr source org_car2x_veins_modules_mac_sigChannelBusy
scalar RSUExampleScenario.node[11].veinsmobility startTime 6.5
scalar RSUExampleScenario.node[11].veinsmobility totalTime 94
scalar RSUExampleScenario.node[11].veinsmobility stopTime 100.6
scalar RSUExampleScenario.node[11].veinsmobility minSpeed 0.00071204340221156
scalar RSUExampleScenario.node[11].veinsmobility maxSpeed 10.538373376655
scalar RSUExampleScenario.node[11].veinsmobility totalDistance 749.19338699122
scalar RSUExampleScenario.node[11].veinsmobility totalCO2Emission 220.80032065723
scalar RSUExampleScenario.node[3].appl generatedWSMs 1
scalar RSUExampleScenario.node[3].appl receivedWSMs 80
scalar RSUExampleScenario.node[3].appl generatedBSMs 996
scalar RSUExampleScenario.node[3].appl receivedBSMs 46919
scalar RSUExampleScenario.node[3].appl generatedWSAs 0
scalar RSUExampleScenario.node[3].appl receivedWSAs 0
scalar RSUExampleScenario.node[3].nic.phy80211p busyTime 0.053990843373524
scalar RSUExampleScenario.node[3].nic.mac1609_4 ReceivedUnicastPackets 0
scalar RSUExampleScenario.node[3].nic.mac1609_4 ReceivedBroadcasts 46999
scalar RSUExampleScenario.node[3].nic.mac1609_4 SentPackets 997
scalar RSUExampleScenario.node[3].nic.mac1609_4 SentAcknowledgements 0
scalar RSUExampleScenario.node[3].nic.mac1609_4 RetriesExceeded 0
scalar RSUExampleScenario.node[3].nic.mac1609_4 SNIRLostPackets 4587
scalar RSUExampleScenario.node[3].nic.mac1609_4 RXTXLostPackets 0
scalar RSUExampleScenario.node[3].nic.mac1609_4 TotalLostPackets 4587
scalar RSUExampleScenario.node[3].nic.mac1609_4 DroppedPacketsInMac 0
scalar RSUExampleScenario.node[3].nic.mac1609_4 TooLittleTime 0
scalar RSUExampleScenario.node[3].nic.mac1609_4 TimesIntoBackoff 997
scalar RSUExampleScenario.node[3].nic.mac1609_4 SlotsBackoff 1484
scalar RSUExampleScenario.node[3].nic.mac1609_4 NumInternalContention 0
scalar RSUExampleScenario.node[3].nic.mac1609_4 totalBusyTime 5.448789
scalar RSUExampleScenario.node[3].nic.mac1609_4 retriesExceeded:count 0
attr source org_car2x_veins_modules_mac_sigRetriesExceeded
scalar RSUExampleScenario.node[3].nic.mac1609_4 sentAcks:count 0
attr source org_car2x_veins_modules_mac_sigSentAck
scalar RSUExampleScenario.node[3].nic.mac1609_4 sentPackets:count 997
attr source org_car2x_veins_modules_mac_sigSentPacket
scalar RSUExampleScenario.node[3].nic.mac1609_4 collisions:count 0
attr source org_car2x_veins_modules_mac_sigCollision
scalar RSUExampleScenario.node[3].nic.mac1609_4 channelBusy:timeavg 0.054706716867501
attr source org_car2x_veins_modules_mac_sigChannelBusy
scalar RSUExampleScenario.node[3].veinsmobility startTime 1.1
scalar RSUExampleScenario.node[3].veinsmobility totalTime 99.5
scalar RSUExampleScenario.node[3].veinsmobility stopTime 100.7
scalar RSUExampleScenario.node[3].veinsmobility minSpeed 0
scalar RSUExampleScenario.node[3].veinsmobility maxSpeed 10.152977756867
scalar RSUExampleScenario.node[3].veinsmobility totalDistance 746.48610943656
scalar RSUExampleScenario.node[3].veinsmobility totalCO2Emission 210.87016640487
scalar RSUExampleScenario.node[5].appl generatedWSMs 1
scalar RSUExampleScenario.node[5].appl receivedWSMs 88
scalar RSUExampleScenario.node[5].appl generatedBSMs 1041
scalar RSUExampleScenario.node[5].appl receivedBSMs 51590
scalar RSUExampleScenario.node[5].appl generatedWSAs 0
scalar RSUExampleScenario.node[5].appl receivedWSAs 0
scalar RSUExampleScenario.node[5].nic.phy80211p busyTime 0.057221671469787
scalar RSUExampleScenario.node[5].nic.mac1609_4 ReceivedUnicastPackets 0
scalar RSUExampleScenario.node[5].nic.mac1609_4 ReceivedBroadcasts 51678
scalar RSUExampleScenario.node[5].nic.mac1609_4 SentPackets 1042
scalar RSUExampleScenario.node[5].nic.mac1609_4 SentAcknowledgements 0
scalar RSUExampleScenario.node[5].nic.mac1609_4 RetriesExceeded 0
scalar RSUExampleScenario.node[5].nic.mac1609_4 SNIRLostPackets 5467
scalar RSUExampleScenario.node[5].nic.mac1609_4 RXTXLostPackets 0
scalar RSUExampleScenario.node[5].nic.mac1609_4 TotalLostPackets 5467
scalar RSUExampleScenario.node[5].nic.mac1609_4 DroppedPacketsInMac 0
scalar RSUExampleScenario.node[5].nic.mac1609_4 TooLittleTime 0
scalar RSUExampleScenario.node[5].nic.mac1609_4 TimesIntoBackoff 1042
scalar RSUExampleScenario.node[5].nic.mac1609_4 SlotsBackoff 1514
scalar RSUExampleScenario.node[5].nic.mac1609_4 NumInternalContention 0
scalar RSUExampleScenario.node[5].nic.mac1609_4 totalBusyTime 6.016266
scalar RSUExampleScenario.node[5].nic.mac1609_4 retriesExceeded:count 0
attr source org_car2x_veins_modules_mac_sigRetriesExceeded
scalar RSUExampleScenario.node[5].nic.mac1609_4 sentAcks:count 0
attr source org_car2x_veins_modules_mac_sigSentAck
scalar RSUExampleScenario.node[5].nic.mac1609_4 sentPackets:count 1042
attr source org_car2x_veins_modules_mac_sigSentPacket
scalar RSUExampleScenario.node[5].nic.mac1609_4 collisions:count 0
attr source org_car2x_veins_modules_mac_sigCollision
scalar RSUExampleScenario.node[5].nic.mac1609_4 channelBusy:timeavg 0.057793141210421
attr source org_car2x_veins_modules_mac_sigChannelBusy
scalar RSUExampleScenario.node[5].veinsmobility startTime 2.1
scalar RSUExampleScenario.node[5].veinsmobility totalTime 104
scalar RSUExampleScenario.node[5].veinsmobility stopTime 106.2
scalar RSUExampleScenario.node[5].veinsmobility minSpeed 0
scalar RSUExampleScenario.node[5].veinsmobility maxSpeed 9.4535816570885
scalar RSUExampleScenario.node[5].veinsmobility totalDistance 746.46756713458
scalar RSUExampleScenario.node[5].veinsmobility totalCO2Emission 215.94904097287
scalar RSUExampleScenario.node[6].appl generatedWSMs 1
scalar RSUExampleScenario.node[6].appl receivedWSMs 88
scalar RSUExampleScenario.node[6].appl generatedBSMs 1047
scalar RSUExampleScenario.node[6].appl receivedBSMs 53189
scalar RSUExampleScenario.node[6].appl generatedWSAs 0
scalar RSUExampleScenario.node[6].appl receivedWSAs 0
scalar RSUExampleScenario.node[6].nic.phy80211p busyTime 0.058594765998141
scalar RSUExampleScenario.node[6].nic.mac1609_4 ReceivedUnicastPackets 0
scalar RSUExampleScenario.node[6].nic.mac1609_4 ReceivedBroadcasts 53277
scalar RSUExampleScenario.node[6].nic.mac1609_4 SentPackets 1048
scalar RSUExampleScenario.node[6].nic.mac1609_4 SentAcknowledgements 0
scalar RSUExampleScenario.node[6].nic.mac1609_4 RetriesExceeded 0
scalar RSUExampleScenario.node[6].nic.mac1609_4 SNIRLostPackets 5578
scalar RSUExampleScenario.node[6].nic.mac1609_4 RXTXLostPackets 27
scalar RSUExampleScenario.node[6].nic.mac1609_4 TotalLostPackets 5605
scalar RSUExampleScenario.node[6].nic.mac1609_4 DroppedPacketsInMac 0
scalar RSUExampleScenario.node[6].nic.mac1609_4 TooLittleTime 0
scalar RSUExampleScenario.node[6].nic.mac1609_4 TimesIntoBackoff 1050
scalar RSUExampleScenario.node[6].nic.mac1609_4 SlotsBackoff 1596
scalar RSUExampleScenario.node[6].nic.mac1609_4 NumInternalContention 0
scalar RSUExampleScenario.node[6].nic.mac1609_4 totalBusyTime 6.191952
scalar RSUExampleScenario.node[6].nic.mac1609_4 retriesExceeded:count 0
attr source org_car2x_veins_modules_mac_sigRetriesExceeded
scalar RSUExampleScenario.node[6].nic.mac1609_4 sentAcks:count 0
attr source org_car2x_veins_modules_mac_sigSentAck
scalar RSUExampleScenario.node[6].nic.mac1609_4 sentPackets:count 1048
attr source org_car2x_veins_modules_mac_sigSentPacket
scalar RSUExampleScenario.node[6].nic.mac1609_4 collisions:count 0
attr source org_car2x_veins_modules_mac_sigCollision
scalar RSUExampleScenario.node[6].nic.mac1609_4 channelBusy:timeavg 0.059139942693461
attr source org_car2x_veins_modules_mac_sigChannelBusy
scalar RSUExampleScenario.node[6].veinsmobility startTime 3.2
scalar RSUExampleScenario.node[6].veinsmobility totalTime 104.6
scalar RSUExampleScenario.node[6].veinsmobility stopTime 107.9
scalar RSUExampleScenario.node[6].veinsmobility minSpeed 0
scalar RSUExampleScenario.node[6].veinsmobility maxSpeed 11.485268072229
scalar RSUExampleScenario.node[6].veinsmobility totalDistance 746.85428843958
scalar RSUExampleScenario.node[6].veinsmobility totalCO2Emission 232.49099054184
scalar RSUExampleScenario.node[15].appl generatedWSMs 1
scalar RSUExampleScenario.node[15].appl receivedWSMs 89
scalar RSUExampleScenario.node[15].appl generatedBSMs 975
scalar RSUExampleScenario.node[15].appl receivedBSMs 52224
scalar RSUExampleScenario.node[15].appl generatedWSAs 0
scalar RSUExampleScenario.node[15].appl receivedWSAs 0
scalar RSUExampleScenario.node[15].nic.phy80211p busyTime 0.062151630769283
scalar RSUExampleScenario.node[15].nic.mac1609_4 ReceivedUnicastPackets 0
scalar RSUExampleScenario.node[15].nic.mac1609_4 ReceivedBroadcasts 52313
scalar RSUExampleScenario.node[15].nic.mac1609_4 SentPackets 976
scalar RSUExampleScenario.node[15].nic.mac1609_4 SentAcknowledgements 0
scalar RSUExampleScenario.node[15].nic.mac1609_4 RetriesExceeded 0
scalar RSUExampleScenario.node[15].nic.mac1609_4 SNIRLostPackets 5820
scalar RSUExampleScenario.node[15].nic.mac1609_4 RXTXLostPackets 1
scalar RSUExampleScenario.node[15].nic.mac1609_4 TotalLostPackets 5821
scalar RSUExampleScenario.node[15].nic.mac1609_4 DroppedPacketsInMac 0
scalar RSUExampleScenario.node[15].nic.mac1609_4 TooLittleTime 0
scalar RSUExampleScenario.node[15].nic.mac1609_4 TimesIntoBackoff 1816
scalar RSUExampleScenario.node[15].nic.mac1609_4 SlotsBackoff 2684
scalar RSUExampleScenario.node[15].nic.mac1609_4 NumInternalContention 0
scalar RSUExampleScenario.node[15].nic.mac1609_4 totalBusyTime 6.1066
scalar RSUExampleScenario.node[15].nic.mac1609_4 retriesExceeded:count 0
attr source org_car2x_veins_modules_mac_sigRetriesExceeded
scalar RSUExampleScenario.node[15].nic.mac1609_4 sentAcks:count 0
attr source org_car2x_veins_modules_mac_sigSentAck
scalar RSUExampleScenario.node[15].nic.mac1609_4 sentPackets:count 976
attr source org_car2x_veins_modules_mac_sigSentPacket
scalar RSUExampleScenario.node[15].nic.mac1609_4 collisions:count 0
attr source org_car2x_veins_modules_mac_sigCollision
scalar RSUExampleScenario.node[15].nic.mac1609_4 channelBusy:timeavg 0.062631794871847
attr source org_car2x_veins_modules_mac_sigChannelBusy
scalar RSUExampleScenario.node[15].veinsmobility startTime 10.4
scalar RSUExampleScenario.node[15].veinsmobility totalTime 97.4
scalar RSUExampleScenario.node[15].veinsmobility stopTime 107.9
scalar RSUExampleScenario.node[15].veinsmobility minSpeed 0.014982802138594
scalar RSUExampleScenario.node[15].veinsmobility maxSpeed 9.4504651117804
scalar RSUExampleScenario.node[15].veinsmobility totalDistance 749.18332538004
scalar RSUExampleScenario.node[15].veinsmobility totalCO2Emission 215.71956252184
scalar RSUExampleScenario.node[18].appl generatedWSMs 1
scalar RSUExampleScenario.node[18].appl receivedWSMs 92
scalar RSUExampleScenario.node[18].appl generatedBSMs 954
scalar RSUExampleScenario.node[18].appl receivedBSMs 53240
scalar RSUExampleScenario.node[18].appl generatedWSAs 0
scalar RSUExampleScenario.node[18].appl receivedWSAs 0
scalar RSUExampleScenario.node[18].nic.phy80211p busyTime 0.064812662473852
scalar RSUExampleScenario.node[18].nic.mac1609_4 ReceivedUnicastPackets 0
scalar RSUExampleScenario.node[18].nic.mac1609_4 ReceivedBroadcasts 53332
scalar RSUExampleScenario.node[18].nic.mac1609_4 SentPackets 955
scalar RSUExampleScenario.node[18].nic.mac1609_4 SentAcknowledgements 0
scalar RSUExampleScenario.node[18].nic.mac1609_4 RetriesExceeded 0
scalar RSUExampleScenario.node[18].nic.mac1609_4 SNIRLostPackets 5987
scalar RSUExampleScenario.node[18].nic.mac1609_4 RXTXLostPackets 0
scalar RSUExampleScenario.node[18].nic.mac1609_4 TotalLostPackets 5987
scalar RSUExampleScenario.node[18].nic.mac1609_4 DroppedPacketsInMac 0
scalar RSUExampleScenario.node[18].nic.mac1609_4 TooLittleTime 0
scalar RSUExampleScenario.node[18].nic.mac1609_4 TimesIntoBackoff 956
scalar RSUExampleScenario.node[18].nic.mac1609_4 SlotsBackoff 1427
scalar RSUExampleScenario.node[18].nic.mac1609_4 NumInternalContention 0
scalar RSUExampleScenario.node[18].nic.mac1609_4 totalBusyTime 6.223995
scalar RSUExampleScenario.node[18].nic.mac1609_4 retriesExceeded:count 0
attr source org_car2x_veins_modules_mac_sigRetriesExceeded
scalar RSUExampleScenario.node[18].nic.mac1609_4 sentAcks:count 0
attr source org_car2x_veins_modules_mac_sigSentAck
scalar RSUExampleScenario.node[18].nic.mac1609_4 sentPackets:count 955
attr source org_car2x_veins_modules_mac_sigSentPacket
scalar RSUExampleScenario.node[18].nic.mac1609_4 collisions:count 0
attr source org_car2x_veins_modules_mac_sigCollision
scalar RSUExampleScenario.node[18].nic.mac1609_4 channelBusy:timeavg 0.065241037735906
attr source org_car2x_veins_modules_mac_sigChannelBusy
scalar RSUExampleScenario.node[18].veinsmobility startTime 14.2
scalar RSUExampleScenario.node[18].veinsmobility totalTime 95.3
scalar RSUExampleScenario.node[18].veinsmobility stopTime 109.6
scalar RSUExampleScenario.node[18].veinsmobility minSpeed 0.11628175771061
scalar RSUExampleScenario.node[18].veinsmobility maxSpeed 10.370720841987
scalar RSUExampleScenario.node[18].veinsmobility totalDistance 748.87118473064
scalar RSUExampleScenario.node[18].veinsmobility totalCO2Emission 226.24036167227
scalar RSUExampleScenario.node[8].appl generatedWSMs 1
scalar RSUExampleScenario.node[8].appl receivedWSMs 94
scalar RSUExampleScenario.node[8].appl generatedBSMs 1065
scalar RSUExampleScenario.node[8].appl receivedBSMs 55936
scalar RSUExampleScenario.node[8].appl generatedWSAs 0
scalar RSUExampleScenario.node[8].appl receivedWSAs 0
scalar RSUExampleScenario.node[8].nic.phy80211p busyTime 0.060857915493018
scalar RSUExampleScenario.node[8].nic.mac1609_4 ReceivedUnicastPackets 0
scalar RSUExampleScenario.node[8].nic.mac1609_4 ReceivedBroadcasts 56030
scalar RSUExampleScenario.node[8].nic.mac1609_4 SentPackets 1066
scalar RSUExampleScenario.node[8].nic.mac1609_4 SentAcknowledgements 0
scalar RSUExampleScenario.node[8].nic.mac1609_4 RetriesExceeded 0
scalar RSUExampleScenario.node[8].nic.mac1609_4 SNIRLostPackets 6153
scalar RSUExampleScenario.node[8].nic.mac1609_4 RXTXLostPackets 0
scalar RSUExampleScenario.node[8].nic.mac1609_4 TotalLostPackets 6153
scalar RSUExampleScenario.node[8].nic.mac1609_4 DroppedPacketsInMac 0
scalar RSUExampleScenario.node[8].nic.mac1609_4 TooLittleTime 0
scalar RSUExampleScenario.node[8].nic.mac1609_4 TimesIntoBackoff 1066
scalar RSUExampleScenario.node[8].nic.mac1609_4 SlotsBackoff 1576
scalar RSUExampleScenario.node[8].nic.mac1609_4 NumInternalContention 0
scalar RSUExampleScenario.node[8].nic.mac1609_4 totalBusyTime 6.53025
scalar RSUExampleScenario.node[8].nic.mac1609_4 retriesExceeded:count 0
attr source org_car2x_veins_modules_mac_sigRetriesExceeded
scalar RSUExampleScenario.node[8].nic.mac1609_4 sentAcks:count 0
attr source org_car2x_veins_modules_mac_sigSentAck
scalar RSUExampleScenario.node[8].nic.mac1609_4 sentPackets:count 1066
attr source org_car2x_veins_modules_mac_sigSentPacket
scalar RSUExampleScenario.node[8].nic.mac1609_4 collisions:count 0
attr source org_car2x_veins_modules_mac_sigCollision
scalar RSUExampleScenario.node[8].nic.mac1609_4 channelBusy:timeavg 0.061316901408511
attr source org_car2x_veins_modules_mac_sigChannelBusy
scalar RSUExampleScenario.node[8].veinsmobility startTime 4.6
scalar RSUExampleScenario.node[8].veinsmobility totalTime 106.4
scalar RSUExampleScenario.node[8].veinsmobility stopTime 111.1
scalar RSUExampleScenario.node[8].veinsmobility minSpeed 1.9581815268884e-05
scalar RSUExampleScenario.node[8].veinsmobility maxSpeed 9.3188699432554
scalar RSUExampleScenario.node[8].veinsmobility totalDistance 746.26568545823
scalar RSUExampleScenario.node[8].veinsmobility totalCO2Emission 225.27210893375
scalar RSUExampleScenario.node[24].appl generatedWSMs 1
scalar RSUExampleScenario.node[24].appl receivedWSMs 96
scalar RSUExampleScenario.node[24].appl generatedBSMs 925
scalar RSUExampleScenario.node[24].appl receivedBSMs 54604
scalar RSUExampleScenario.node[24].appl generatedWSAs 0
scalar RSUExampleScenario.node[24].appl receivedWSAs 0
scalar RSUExampleScenario.node[24].nic.phy80211p busyTime 0.068979891891958
scalar RSUExampleScenario.node[24].nic.mac1609_4 ReceivedUnicastPackets 0
scalar RSUExampleScenario.node[24].nic.mac1609_4 ReceivedBroadcasts 54700
scalar RSUExampleScenario.node[24].nic.mac1609_4 SentPackets 926
scalar RSUExampleScenario.node[24].nic.mac1609_4 SentAcknowledgements 0
scalar RSUExampleScenario.node[24].nic.mac1609_4 RetriesExceeded 0
scalar RSUExampleScenario.node[24].nic.mac1609_4 SNIRLostPackets 6512
scalar RSUExampleScenario.node[24].nic.mac1609_4 RXTXLostPackets 0
scalar RSUExampleScenario.node[24].nic.mac1609_4 TotalLostPackets 6512
scalar RSUExampleScenario.node[24].nic.mac1609_4 DroppedPacketsInMac 0
scalar RSUExampleScenario.node[24].nic.mac1609_4 TooLittleTime 0
scalar RSUExampleScenario.node[24].nic.mac1609_4 TimesIntoBackoff 926
scalar RSUExampleScenario.node[24].nic.mac1609_4 SlotsBackoff 1388
scalar RSUExampleScenario.node[24].nic.mac1609_4 NumInternalContention 0
scalar RSUExampleScenario.node[24].nic.mac1609_4 totalBusyTime 6.411286
scalar RSUExampleScenario.node[24].nic.mac1609_4 retriesExceeded:count 0
attr source org_car2x_veins_modules_mac_sigRetriesExceeded
scalar RSUExampleScenario.node[24].nic.mac1609_4 sentAcks:count 0
attr source org_car2x_veins_modules_mac_sigSentAck
scalar RSUExampleScenario.node[24].nic.mac1609_4 sentPackets:count 926
attr source org_car2x_veins_modules_mac_sigSentPacket
scalar RSUExampleScenario.node[24].nic.mac1609_4 collisions:count 0
attr source org_car2x_veins_modules_mac_sigCollision
scalar RSUExampleScenario.node[24].nic.mac1609_4 channelBusy:timeavg 0.069311200000065
attr source org_car2x_veins_modules_mac_sigChannelBusy
scalar RSUExampleScenario.node[24].veinsmobility startTime 20
scalar RSUExampleScenario.node[24].veinsmobility totalTime 92.4
scalar RSUExampleScenario.node[24].veinsmobility stopTime 112.5
scalar RSUExampleScenario.node[24].veinsmobility minSpeed 2.5815038729445
scalar RSUExampleScenario.node[24].veinsmobility maxSpeed 9.3850319670512
scalar RSUExampleScenario.node[24].veinsmobility totalDistance 749.56058228724
scalar RSUExampleScenario.node[24].veinsmobility totalCO2Emission 211.44030712614
scalar RSUExampleScenario.node[10].appl generatedWSMs 1
scalar RSUExampleScenario.node[10].appl receivedWSMs 96
scalar RSUExampleScenario.node[10].appl generatedBSMs 1067
scalar RSUExampleScenario.node[10].appl receivedBSMs 57539
scalar RSUExampleScenario.node[10].appl generatedWSAs 0
scalar RSUExampleScenario.node[10].appl receivedWSAs 0
scalar RSUExampleScenario.node[10].nic.phy80211p busyTime 0.062285285848237
scalar RSUExampleScenario.node[10].nic.mac1609_4 ReceivedUnicastPackets 0
scalar RSUExampleScenario.node[10].nic.mac1609_4 ReceivedBroadcasts 57635
scalar RSUExampleScenario.node[10].nic.mac1609_4 SentPackets 1068
scalar RSUExampleScenario.node[10].nic.mac1609_4 SentAcknowledgements 0
scalar RSUExampleScenario.node[10].nic.mac1609_4 RetriesExceeded 0
scalar RSUExampleScenario.node[10].nic.mac1609_4 SNIRLostPackets 6127
scalar RSUExampleScenario.node[10].nic.mac1609_4 RXTXLostPackets 211
scalar RSUExampleScenario.node[10].nic.mac1609_4 TotalLostPackets 6338
scalar RSUExampleScenario.node[10].nic.mac1609_4 DroppedPacketsInMac 0
scalar RSUExampleScenario.node[10].nic.mac1609_4 TooLittleTime 0
scalar RSUExampleScenario.node[10].nic.mac1609_4 TimesIntoBackoff 1857
scalar RSUExampleScenario.node[10].nic.mac1609_4 SlotsBackoff 2733
scalar RSUExampleScenario.node[10].nic.mac1609_4 NumInternalContention 0
scalar RSUExampleScenario.node[10].nic.mac1609_4 totalBusyTime 6.712092
scalar RSUExampleScenario.node[10].nic.mac1609_4 retriesExceeded:count 0
attr source org_car2x_veins_modules_mac_sigRetriesExceeded
scalar RSUExampleScenario.node[10].nic.mac1609_4 sentAcks:count 0
attr source org_car2x_veins_modules_mac_sigSentAck
scalar RSUExampleScenario.node[10].nic.mac1609_4 sentPackets:count 1068
attr source org_car2x_veins_modules_mac_sigSentPacket
scalar RSUExampleScenario.node[10].nic.mac1609_4 collisions:count 0
attr source org_car2x_veins_modules_mac_sigCollision
scalar RSUExampleScenario.node[10].nic.mac1609_4 channelBusy:timeavg 0.062906204311218
attr source org_car2x_veins_modules_mac_sigChannelBusy
scalar RSUExampleScenario.node[10].veinsmobility startTime 6.2
scalar RSUExampleScenario.node[10].veinsmobility totalTime 106.6
scalar RSUExampleScenario.node[10].veinsmobility stopTime 112.9
scalar RSUExampleScenario.node[10].veinsmobility minSpeed 0.00014116959093042
scalar RSUExampleScenario.node[10].veinsmobility maxSpeed 10.391641564745
scalar RSUExampleScenario.node[10].veinsmobility totalDistance 746.95090694678
scalar RSUExampleScenario.node[10].veinsmobility totalCO2Emission 232.51449086598
scalar RSUExampleScenario.node[28].appl generatedWSMs 1
scalar RSUExampleScenario.node[28].appl receivedWSMs 98
scalar RSUExampleScenario.node[28].appl generatedBSMs 902
scalar RSUExampleScenario.node[28].appl receivedBSMs 55216
scalar RSUExampleScenario.node[28].appl generatedWSAs 0
scalar RSUExampleScenario.node[28].appl receivedWSAs 0
scalar RSUExampleScenario.node[28].nic.phy80211p busyTime 0.071672372505614
scalar RSUExampleScenario.node[28].nic.mac1609_4 ReceivedUnicastPackets 0
scalar RSUExampleScenario.node[28].nic.mac1609_4 ReceivedBroadcasts 55314
scalar RSUExampleScenario.node[28].nic.mac1609_4 SentPackets 903
scalar RSUExampleScenario.node[28].nic.mac1609_4 SentAcknowledgements 0
scalar RSUExampleScenario.node[28].nic.mac1609_4 RetriesExceeded 0
scalar RSUExampleScenario.node[28].nic.mac1609_4 SNIRLostPackets 6704
scalar RSUExampleScenario.node[28].nic.mac1609_4 RXTXLostPackets 0
scalar RSUExampleScenario.node[28].nic.mac1609_4 TotalLostPackets 6704
scalar RSUExampleScenario.node[28].nic.mac1609_4 DroppedPacketsInMac 0
scalar RSUExampleScenario.node[28].nic.mac1609_4 TooLittleTime 0
scalar RSUExampleScenario.node[28].nic.mac1609_4 TimesIntoBackoff 905
scalar RSUExampleScenario.node[28].nic.mac1609_4 SlotsBackoff 1370
scalar RSUExampleScenario.node[28].nic.mac1609_4 NumInternalContention 0
scalar RSUExampleScenario.node[28].nic.mac1609_4 totalBusyTime 6.488399
scalar RSUExampleScenario.node[28].nic.mac1609_4 retriesExceeded:count 0
attr source org_car2x_veins_modules_mac_sigRetriesExceeded
scalar RSUExampleScenario.node[28].nic.mac1609_4 sentAcks:count 0
attr source org_car2x_veins_modules_mac_sigSentAck
scalar RSUExampleScenario.node[28].nic.mac1609_4 sentPackets:count 903
attr source org_car2x_veins_modules_mac_sigSentPacket
scalar RSUExampleScenario.node[28].nic.mac1609_4 collisions:count 0
attr source org_car2x_veins_modules_mac_sigCollision
scalar RSUExampleScenario.node[28].nic.mac1609_4 channelBusy:timeavg 0.071933470066589
attr source org_car2x_veins_modules_mac_sigChannelBusy
scalar RSUExampleScenario.node[28].veinsmobility startTime 24
scalar RSUExampleScenario.node[28].veinsmobility totalTime 90.1
scalar RSUExampleScenario.node[28].veinsmobility stopTime 114.2
scalar RSUExampleScenario.node[28].veinsmobility minSpeed 2.5077368896333
scalar RSUExampleScenario.node[28].veinsmobility maxSpeed 10.053477161475
scalar RSUExampleScenario.node[28].veinsmobility totalDistance 749.03583482719
scalar RSUExampleScenario.node[28].veinsmobility totalCO2Emission 218.19000606286
scalar RSUExampleScenario.node[12].appl generatedWSMs 1
scalar RSUExampleScenario.node[12].appl receivedWSMs 98
scalar RSUExampleScenario.node[12].appl generatedBSMs 1065
scalar RSUExampleScenario.node[12].appl receivedBSMs 58892
scalar RSUExampleScenario.node[12].appl generatedWSAs 0
scalar RSUExampleScenario.node[12].appl receivedWSAs 0
scalar RSUExampleScenario.node[12].nic.phy80211p busyTime 0.063956582159694
scalar RSUExampleScenario.node[12].nic.mac1609_4 ReceivedUnicastPackets 0
scalar RSUExampleScenario.node[12].nic.mac1609_4 ReceivedBroadcasts 58990
scalar RSUExampleScenario.node[12].nic.mac1609_4 SentPackets 1066
scalar RSUExampleScenario.node[12].nic.mac1609_4 SentAcknowledgements 0
scalar RSUExampleScenario.node[12].nic.mac1609_4 RetriesExceeded 0
scalar RSUExampleScenario.node[12].nic.mac1609_4 SNIRLostPackets 6360
scalar RSUExampleScenario.node[12].nic.mac1609_4 RXTXLostPackets 154
scalar RSUExampleScenario.node[12].nic.mac1609_4 TotalLostPackets 6514
scalar RSUExampleScenario.node[12].nic.mac1609_4 DroppedPacketsInMac 0
scalar RSUExampleScenario.node[12].nic.mac1609_4 TooLittleTime 0
scalar RSUExampleScenario.node[12].nic.mac1609_4 TimesIntoBackoff 1066
scalar RSUExampleScenario.node[12].nic.mac1609_4 SlotsBackoff 1598
scalar RSUExampleScenario.node[12].nic.mac1609_4 NumInternalContention 0
scalar RSUExampleScenario.node[12].nic.mac1609_4 totalBusyTime 6.867128602532
scalar RSUExampleScenario.node[12].nic.mac1609_4 retriesExceeded:count 0
attr source org_car2x_veins_modules_mac_sigRetriesExceeded
scalar RSUExampleScenario.node[12].nic.mac1609_4 sentAcks:count 0
attr source org_car2x_veins_modules_mac_sigSentAck
scalar RSUExampleScenario.node[12].nic.mac1609_4 sentPackets:count 1066
attr source org_car2x_veins_modules_mac_sigSentPacket
scalar RSUExampleScenario.node[12].nic.mac1609_4 collisions:count 0
attr source org_car2x_veins_modules_mac_sigCollision
scalar RSUExampleScenario.node[12].nic.mac1609_4 channelBusy:timeavg 0.064480080775018
attr source org_car2x_veins_modules_mac_sigChannelBusy
scalar RSUExampleScenario.node[12].veinsmobility startTime 8
scalar RSUExampleScenario.node[12].veinsmobility totalTime 106.4
scalar RSUExampleScenario.node[12].veinsmobility stopTime 114.5
scalar RSUExampleScenario.node[12].veinsmobility minSpeed 0.00052663393910517
scalar RSUExampleScenario.node[12].veinsmobility maxSpeed 11.057797459527
scalar RSUExampleScenario.node[12].veinsmobility totalDistance 746.53277184998
scalar RSUExampleScenario.node[12].veinsmobility totalCO2Emission 241.74659528503
scalar RSUExampleScenario.node[32].appl generatedWSMs 1
scalar RSUExampleScenario.node[32].appl receivedWSMs 101
scalar RSUExampleScenario.node[32].appl generatedBSMs 876
scalar RSUExampleScenario.node[32].appl receivedBSMs 55631
scalar RSUExampleScenario.node[32].appl generatedWSAs 0
scalar RSUExampleScenario.node[32].appl receivedWSAs 0
scalar RSUExampleScenario.node[32].nic.phy80211p busyTime 0.074433607306011
scalar RSUExampleScenario.node[32].nic.mac1609_4 ReceivedUnicastPackets 0
scalar RSUExampleScenario.node[32].nic.mac1609_4 ReceivedBroadcasts 55732
scalar RSUExampleScenario.node[32].nic.mac1609_4 SentPackets 877
scalar RSUExampleScenario.node[32].nic.mac1609_4 SentAcknowledgements 0
scalar RSUExampleScenario.node[32].nic.mac1609_4 RetriesExceeded 0
scalar RSUExampleScenario.node[32].nic.mac1609_4 SNIRLostPackets 6820
scalar RSUExampleScenario.node[32].nic.mac1609_4 RXTXLostPackets 0
scalar RSUExampleScenario.node[32].nic.mac1609_4 TotalLostPackets 6820
scalar RSUExampleScenario.node[32].nic.mac1609_4 DroppedPacketsInMac 0
scalar RSUExampleScenario.node[32].nic.mac1609_4 TooLittleTime 0
scalar RSUExampleScenario.node[32].nic.mac1609_4 TimesIntoBackoff 877
scalar RSUExampleScenario.node[32].nic.mac1609_4 SlotsBackoff 1264
scalar RSUExampleScenario.node[32].nic.mac1609_4 NumInternalContention 0
scalar RSUExampleScenario.node[32].nic.mac1609_4 totalBusyTime 6.538605
scalar RSUExampleScenario.node[32].nic.mac1609_4 retriesExceeded:count 0
attr source org_car2x_veins_modules_mac_sigRetriesExceeded
scalar RSUExampleScenario.node[32].nic.mac1609_4 sentAcks:count 0
attr source org_car2x_veins_modules_mac_sigSentAck
scalar RSUExampleScenario.node[32].nic.mac1609_4 sentPackets:count 877
attr source org_car2x_veins_modules_mac_sigSentPacket
scalar RSUExampleScenario.node[32].nic.mac1609_4 collisions:count 0
attr source org_car2x_veins_modules_mac_sigCollision
scalar RSUExampleScenario.node[32].nic.mac1609_4 channelBusy:timeavg 0.074641609589115
attr source org_car2x_veins_modules_mac_sigChannelBusy
scalar RSUExampleScenario.node[32].veinsmobility startTime 28.3
scalar RSUExampleScenario.node[32].veinsmobility totalTime 87.5
scalar RSUExampleScenario.node[32].veinsmobility stopTime 115.9
scalar RSUExampleScenario.node[32].veinsmobility minSpeed 2.6309797160579
scalar RSUExampleScenario.node[32].veinsmobility maxSpeed 10.826383632801
scalar RSUExampleScenario.node[32].veinsmobility totalDistance 749.39400851385
scalar RSUExampleScenario.node[32].veinsmobility totalCO2Emission 217.29244850135
scalar RSUExampleScenario.node[34].appl generatedWSMs 1
scalar RSUExampleScenario.node[34].appl receivedWSMs 101
scalar RSUExampleScenario.node[34].appl generatedBSMs 876
scalar RSUExampleScenario.node[34].appl receivedBSMs 56851
scalar RSUExampleScenario.node[34].appl generatedWSAs 0
scalar RSUExampleScenario.node[34].appl receivedWSAs 0
scalar RSUExampleScenario.node[34].nic.phy80211p busyTime 0.076209315068573
scalar RSUExampleScenario.node[34].nic.mac1609_4 ReceivedUnicastPackets 0
scalar RSUExampleScenario.node[34].nic.mac1609_4 ReceivedBroadcasts 56952
scalar RSUExampleScenario.node[34].nic.mac1609_4 SentPackets 877
scalar RSUExampleScenario.node[34].nic.mac1609_4 SentAcknowledgements 0
scalar RSUExampleScenario.node[34].nic.mac1609_4 RetriesExceeded 0
scalar RSUExampleScenario.node[34].nic.mac1609_4 SNIRLostPackets 7092
scalar RSUExampleScenario.node[34].nic.mac1609_4 RXTXLostPackets 0
scalar RSUExampleScenario.node[34].nic.mac1609_4 TotalLostPackets 7092
scalar RSUExampleScenario.node[34].nic.mac1609_4 DroppedPacketsInMac 0
scalar RSUExampleScenario.node[34].nic.mac1609_4 TooLittleTime 0
scalar RSUExampleScenario.node[34].nic.mac1609_4 TimesIntoBackoff 984
scalar RSUExampleScenario.node[34].nic.mac1609_4 SlotsBackoff 1440
scalar RSUExampleScenario.node[34].nic.mac1609_4 NumInternalContention 0
scalar RSUExampleScenario.node[34].nic.mac1609_4 totalBusyTime 6.691037
scalar RSUExampleScenario.node[34].nic.mac1609_4 retriesExceeded:count 0
attr source org_car2x_veins_modules_mac_sigRetriesExceeded
scalar RSUExampleScenario.node[34].nic.mac1609_4 sentAcks:count 0
attr source org_car2x_veins_modules_mac_sigSentAck
scalar RSUExampleScenario.node[34].nic.mac1609_4 sentPackets:count 877
attr source org_car2x_veins_modules_mac_sigSentPacket
scalar RSUExampleScenario.node[34].nic.mac1609_4 collisions:count 0
attr source org_car2x_veins_modules_mac_sigCollision
scalar RSUExampleScenario.node[34].nic.mac1609_4 channelBusy:timeavg 0.076381700913321
attr source org_car2x_veins_modules_mac_sigChannelBusy
scalar RSUExampleScenario.node[34].veinsmobility startTime 30.3
scalar RSUExampleScenario.node[34].veinsmobility totalTime 87.5
scalar RSUExampleScenario.node[34].veinsmobility stopTime 117.9
scalar RSUExampleScenario.node[34].veinsmobility minSpeed 2.7870724715588
scalar RSUExampleScenario.node[34].veinsmobility maxSpeed 9.7713664136619
scalar RSUExampleScenario.node[34].veinsmobility totalDistance 749.51535459691
scalar RSUExampleScenario.node[34].veinsmobility totalCO2Emission 212.24158944013
scalar RSUExampleScenario.node[38].appl generatedWSMs 1
scalar RSUExampleScenario.node[38].appl receivedWSMs 104
scalar RSUExampleScenario.node[38].appl generatedBSMs 853
scalar RSUExampleScenario.node[38].appl receivedBSMs 57115
scalar RSUExampleScenario.node[38].appl generatedWSAs 0
scalar RSUExampleScenario.node[38].appl receivedWSAs 0
scalar RSUExampleScenario.node[38].nic.phy80211p busyTime 0.078536084408055
scalar RSUExampleScenario.node[38].nic.mac1609_4 ReceivedUnicastPackets 0
scalar RSUExampleScenario.node[38].nic.mac1609_4 ReceivedBroadcasts 57219
scalar RSUExampleScenario.node[38].nic.mac1609_4 SentPackets 854
scalar RSUExampleScenario.node[38].nic.mac1609_4 SentAcknowledgements 0
scalar RSUExampleScenario.node[38].nic.mac1609_4 RetriesExceeded 0
scalar RSUExampleScenario.node[38].nic.mac1609_4 SNIRLostPackets 7048
scalar RSUExampleScenario.node[38].nic.mac1609_4 RXTXLostPackets 177
scalar RSUExampleScenario.node[38].nic.mac1609_4 TotalLostPackets 7225
scalar RSUExampleScenario.node[38].nic.mac1609_4 DroppedPacketsInMac 0
scalar RSUExampleScenario.node[38].nic.mac1609_4 TooLittleTime 0
scalar RSUExampleScenario.node[38].nic.mac1609_4 TimesIntoBackoff 854
scalar RSUExampleScenario.node[38].nic.mac1609_4 SlotsBackoff 1217
scalar RSUExampleScenario.node[38].nic.mac1609_4 NumInternalContention 0
scalar RSUExampleScenario.node[38].nic.mac1609_4 totalBusyTime 6.729078
scalar RSUExampleScenario.node[38].nic.mac1609_4 retriesExceeded:count 0
attr source org_car2x_veins_modules_mac_sigRetriesExceeded
scalar RSUExampleScenario.node[38].nic.mac1609_4 sentAcks:count 0
attr source org_car2x_veins_modules_mac_sigSentAck
scalar RSUExampleScenario.node[38].nic.mac1609_4 sentPackets:count 854
attr source org_car2x_veins_modules_mac_sigSentPacket
scalar RSUExampleScenario.node[38].nic.mac1609_4 collisions:count 0
attr source org_car2x_veins_modules_mac_sigCollision
scalar RSUExampleScenario.node[38].nic.mac1609_4 channelBusy:timeavg 0.07888719812435
attr source org_car2x_veins_modules_mac_sigChannelBusy
scalar RSUExampleScenario.node[38].veinsmobility startTime 34.3
scalar RSUExampleScenario.node[38].veinsmobility totalTime 85.2
scalar RSUExampleScenario.node[38].veinsmobility stopTime 119.6
scalar RSUExampleScenario.node[38].veinsmobility minSpeed 2.8493175677302
scalar RSUExampleScenario.node[38].veinsmobility maxSpeed 10.533304751534
scalar RSUExampleScenario.node[38].veinsmobility totalDistance 749.17460767072
scalar RSUExampleScenario.node[38].veinsmobility totalCO2Emission 217.07212590626
scalar RSUExampleScenario.manager roiArea 0
scalar RSUExampleScenario.node[2].appl generatedWSMs 1
scalar RSUExampleScenario.node[2].appl receivedWSMs 119
scalar RSUExampleScenario.node[2].appl generatedBSMs 1191
scalar RSUExampleScenario.node[2].appl receivedBSMs 70700
scalar RSUExampleScenario.node[2].appl generatedWSAs 0
scalar RSUExampleScenario.node[2].appl receivedWSAs 0
scalar RSUExampleScenario.node[2].nic.phy80211p busyTime 0.06295005877422
scalar RSUExampleScenario.node[2].nic.mac1609_4 ReceivedUnicastPackets 0
scalar RSUExampleScenario.node[2].nic.mac1609_4 ReceivedBroadcasts 70819
scalar RSUExampleScenario.node[2].nic.mac1609_4 SentPackets 1192
scalar RSUExampleScenario.node[2].nic.mac1609_4 SentAcknowledgements 0
scalar RSUExampleScenario.node[2].nic.mac1609_4 RetriesExceeded 0
scalar RSUExampleScenario.node[2].nic.mac1609_4 SNIRLostPackets 1122
scalar RSUExampleScenario.node[2].nic.mac1609_4 RXTXLostPackets 0
scalar RSUExampleScenario.node[2].nic.mac1609_4 TotalLostPackets 1122
scalar RSUExampleScenario.node[2].nic.mac1609_4 DroppedPacketsInMac 0
scalar RSUExampleScenario.node[2].nic.mac1609_4 TooLittleTime 0
scalar RSUExampleScenario.node[2].nic.mac1609_4 TimesIntoBackoff 1195
scalar RSUExampleScenario.node[2].nic.mac1609_4 SlotsBackoff 1752
scalar RSUExampleScenario.node[2].nic.mac1609_4 NumInternalContention 0
scalar RSUExampleScenario.node[2].nic.mac1609_4 totalBusyTime 7.541784
scalar RSUExampleScenario.node[2].nic.mac1609_4 retriesExceeded:count 0
attr source org_car2x_veins_modules_mac_sigRetriesExceeded
scalar RSUExampleScenario.node[2].nic.mac1609_4 sentAcks:count 0
attr source org_car2x_veins_modules_mac_sigSentAck
scalar RSUExampleScenario.node[2].nic.mac1609_4 sentPackets:count 1192
attr source org_car2x_veins_modules_mac_sigSentPacket
scalar RSUExampleScenario.node[2].nic.mac1609_4 collisions:count 0
attr source org_car2x_veins_modules_mac_sigCollision
scalar RSUExampleScenario.node[2].nic.mac1609_4 channelBusy:timeavg 0.063323123425772
attr source org_car2x_veins_modules_mac_sigChannelBusy
scalar RSUExampleScenario.node[2].veinsmobility startTime 0.9
scalar RSUExampleScenario.node[2].veinsmobility totalTime 119.1
scalar RSUExampleScenario.node[2].veinsmobility stopTime 120
scalar RSUExampleScenario.node[2].veinsmobility minSpeed 0
scalar RSUExampleScenario.node[2].veinsmobility maxSpeed 10.297867905462
scalar RSUExampleScenario.node[2].veinsmobility totalDistance 236.3989999081
scalar RSUExampleScenario.node[2].veinsmobility totalCO2Emission 150.22597821918
scalar RSUExampleScenario.node[4].appl generatedWSMs 1
scalar RSUExampleScenario.node[4].appl receivedWSMs 119
scalar RSUExampleScenario.node[4].appl generatedBSMs 1181
scalar RSUExampleScenario.node[4].appl receivedBSMs 70667
scalar RSUExampleScenario.node[4].appl generatedWSAs 0
scalar RSUExampleScenario.node[4].appl receivedWSAs 0
scalar RSUExampleScenario.node[4].nic.phy80211p busyTime 0.063458425063587
scalar RSUExampleScenario.node[4].nic.mac1609_4 ReceivedUnicastPackets 0
scalar RSUExampleScenario.node[4].nic.mac1609_4 ReceivedBroadcasts 70786
scalar RSUExampleScenario.node[4].nic.mac1609_4 SentPackets 1182
scalar RSUExampleScenario.node[4].nic.mac1609_4 SentAcknowledgements 0
scalar RSUExampleScenario.node[4].nic.mac1609_4 RetriesExceeded 0
scalar RSUExampleScenario.node[4].nic.mac1609_4 SNIRLostPackets 1127
scalar RSUExampleScenario.node[4].nic.mac1609_4 RXTXLostPackets 0
scalar RSUExampleScenario.node[4].nic.mac1609_4 TotalLostPackets 1127
scalar RSUExampleScenario.node[4].nic.mac1609_4 DroppedPacketsInMac 0
scalar RSUExampleScenario.node[4].nic.mac1609_4 TooLittleTime 0
scalar RSUExampleScenario.node[4].nic.mac1609_4 TimesIntoBackoff 1182
scalar RSUExampleScenario.node[4].nic.mac1609_4 SlotsBackoff 1764
scalar RSUExampleScenario.node[4].nic.mac1609_4 NumInternalContention 0
scalar RSUExampleScenario.node[4].nic.mac1609_4 totalBusyTime 7.537822
scalar RSUExampleScenario.node[4].nic.mac1609_4 retriesExceeded:count 0
attr source org_car2x_veins_modules_mac_sigRetriesExceeded
scalar RSUExampleScenario.node[4].nic.mac1609_4 sentAcks:count 0
attr source org_car2x_veins_modules_mac_sigSentAck
scalar RSUExampleScenario.node[4].nic.mac1609_4 sentPackets:count 1182
attr source org_car2x_veins_modules_mac_sigSentPacket
scalar RSUExampleScenario.node[4].nic.mac1609_4 collisions:count 0
attr source org_car2x_veins_modules_mac_sigCollision
scalar RSUExampleScenario.node[4].nic.mac1609_4 channelBusy:timeavg 0.063825757832426
attr source org_car2x_veins_modules_mac_sigChannelBusy
scalar RSUExampleScenario.node[4].veinsmobility startTime 1.9
scalar RSUExampleScenario.node[4].veinsmobility totalTime 118.1
scalar RSUExampleScenario.node[4].veinsmobility stopTime 120
scalar RSUExampleScenario.node[4].veinsmobility minSpeed 0
scalar RSUExampleScenario.node[4].veinsmobility maxSpeed 8.8292153161574
scalar RSUExampleScenario.node[4].veinsmobility totalDistance 238.59899980681
scalar RSUExampleScenario.node[4].veinsmobility totalCO2Emission 150.74536300311
scalar RSUExampleScenario.node[9].appl generatedWSMs 1
scalar RSUExampleScenario.node[9].appl receivedWSMs 119
scalar RSUExampleScenario.node[9].appl generatedBSMs 1153
scalar RSUExampleScenario.node[9].appl receivedBSMs 70510
scalar RSUExampleScenario.node[9].appl generatedWSAs 0
scalar RSUExampleScenario.node[9].appl receivedWSAs 0
scalar RSUExampleScenario.node[9].nic.phy80211p busyTime 0.064845030355677
scalar RSUExampleScenario.node[9].nic.mac1609_4 ReceivedUnicastPackets 0
scalar RSUExampleScenario.node[9].nic.mac1609_4 ReceivedBroadcasts 70629
scalar RSUExampleScenario.node[9].nic.mac1609_4 SentPackets 1154
scalar RSUExampleScenario.node[9].nic.mac1609_4 SentAcknowledgements 0
scalar RSUExampleScenario.node[9].nic.mac1609_4 RetriesExceeded 0
scalar RSUExampleScenario.node[9].nic.mac1609_4 SNIRLostPackets 1114
scalar RSUExampleScenario.node[9].nic.mac1609_4 RXTXLostPackets 1
scalar RSUExampleScenario.node[9].nic.mac1609_4 TotalLostPackets 1115
scalar RSUExampleScenario.node[9].nic.mac1609_4 DroppedPacketsInMac 0
scalar RSUExampleScenario.node[9].nic.mac1609_4 TooLittleTime 0
scalar RSUExampleScenario.node[9].nic.mac1609_4 TimesIntoBackoff 1155
scalar RSUExampleScenario.node[9].nic.mac1609_4 SlotsBackoff 1741
scalar RSUExampleScenario.node[9].nic.mac1609_4 NumInternalContention 0
scalar RSUExampleScenario.node[9].nic.mac1609_4 totalBusyTime 7.517306
scalar RSUExampleScenario.node[9].nic.mac1609_4 retriesExceeded:count 0
attr source org_car2x_veins_modules_mac_sigRetriesExceeded
scalar RSUExampleScenario.node[9].nic.mac1609_4 sentAcks:count 0
attr source org_car2x_veins_modules_mac_sigSentAck
scalar RSUExampleScenario.node[9].nic.mac1609_4 sentPackets:count 1154
attr source org_car2x_veins_modules_mac_sigSentPacket
scalar RSUExampleScenario.node[9].nic.mac1609_4 collisions:count 0
attr source org_car2x_veins_modules_mac_sigCollision
scalar RSUExampleScenario.node[9].nic.mac1609_4 channelBusy:timeavg 0.065197797051253
attr source org_car2x_veins_modules_mac_sigChannelBusy
scalar RSUExampleScenario.node[9].veinsmobility startTime 4.7
scalar RSUExampleScenario.node[9].veinsmobility totalTime 115.3
scalar RSUExampleScenario.node[9].veinsmobility stopTime 120
scalar RSUExampleScenario.node[9].veinsmobility minSpeed 0
scalar RSUExampleScenario.node[9].veinsmobility maxSpeed 7.6442342324391
scalar RSUExampleScenario.node[9].veinsmobility totalDistance 228.8979902463
scalar RSUExampleScenario.node[9].veinsmobility totalCO2Emission 147.80722138189
scalar RSUExampleScenario.node[13].appl generatedWSMs 1
scalar RSUExampleScenario.node[13].appl receivedWSMs 119
scalar RSUExampleScenario.node[13].appl generatedBSMs 1116
scalar RSUExampleScenario.node[13].appl receivedBSMs 70125
scalar RSUExampleScenario.node[13].appl generatedWSAs 0
scalar RSUExampleScenario.node[13].appl receivedWSAs 0
scalar RSUExampleScenario.node[13].nic.phy80211p busyTime 0.06664473118288
scalar RSUExampleScenario.node[13].nic.mac1609_4 ReceivedUnicastPackets 0
scalar RSUExampleScenario.node[13].nic.mac1609_4 ReceivedBroadcasts 70244
scalar RSUExampleScenario.node[13].nic.mac1609_4 SentPackets 1117
scalar RSUExampleScenario.node[13].nic.mac1609_4 SentAcknowledgements 0
scalar RSUExampleScenario.node[13].nic.mac1609_4 RetriesExceeded 0
scalar RSUExampleScenario.node[13].nic.mac1609_4 SNIRLostPackets 1122
scalar RSUExampleScenario.node[13].nic.mac1609_4 RXTXLostPackets 0
scalar RSUExampleScenario.node[13].nic.mac1609_4 TotalLostPackets 1122
scalar RSUExampleScenario.node[13].nic.mac1609_4 DroppedPacketsInMac 0
scalar RSUExampleScenario.node[13].nic.mac1609_4 TooLittleTime 0
scalar RSUExampleScenario.node[13].nic.mac1609_4 TimesIntoBackoff 1117
scalar RSUExampleScenario.node[13].nic.mac1609_4 SlotsBackoff 1719
scalar RSUExampleScenario.node[13].nic.mac1609_4 NumInternalContention 0
scalar RSUExampleScenario.node[13].nic.mac1609_4 totalBusyTime 7.474109
scalar RSUExampleScenario.node[13].nic.mac1609_4 retriesExceeded:count 0
attr source org_car2x_veins_modules_mac_sigRetriesExceeded
scalar RSUExampleScenario.node[13].nic.mac1609_4 sentAcks:count 0
attr source org_car2x_veins_modules_mac_sigSentAck
scalar RSUExampleScenario.node[13].nic.mac1609_4 sentPackets:count 1117
attr source org_car2x_veins_modules_mac_sigSentPacket
scalar RSUExampleScenario.node[13].nic.mac1609_4 collisions:count 0
attr source org_car2x_veins_modules_mac_sigCollision
scalar RSUExampleScenario.node[13].nic.mac1609_4 channelBusy:timeavg 0.066972302867467
attr source org_car2x_veins_modules_mac_sigChannelBusy
scalar RSUExampleScenario.node[13].veinsmobility startTime 8.4
scalar RSUExampleScenario.node[13].veinsmobility totalTime 111.6
scalar RSUExampleScenario.node[13].veinsmobility stopTime 120
scalar RSUExampleScenario.node[13].veinsmobility minSpeed 0
scalar RSUExampleScenario.node[13].veinsmobility maxSpeed 10.604917043658
scalar RSUExampleScenario.node[13].veinsmobility totalDistance 231.09798988879
scalar RSUExampleScenario.node[13].veinsmobility totalCO2Emission 150.88121360345
scalar RSUExampleScenario.node[14].appl generatedWSMs 1
scalar RSUExampleScenario.node[14].appl receivedWSMs 105
scalar RSUExampleScenario.node[14].appl generatedBSMs 1100
scalar RSUExampleScenario.node[14].appl receivedBSMs 63718
scalar RSUExampleScenario.node[14].appl generatedWSAs 0
scalar RSUExampleScenario.node[14].appl receivedWSAs 0
scalar RSUExampleScenario.node[14].nic.phy80211p busyTime 0.067417454545539
scalar RSUExampleScenario.node[14].nic.mac1609_4 ReceivedUnicastPackets 0
scalar RSUExampleScenario.node[14].nic.mac1609_4 ReceivedBroadcasts 63823
scalar RSUExampleScenario.node[14].nic.mac1609_4 SentPackets 1101
scalar RSUExampleScenario.node[14].nic.mac1609_4 SentAcknowledgements 0
scalar RSUExampleScenario.node[14].nic.mac1609_4 RetriesExceeded 0
scalar RSUExampleScenario.node[14].nic.mac1609_4 SNIRLostPackets 7335
scalar RSUExampleScenario.node[14].nic.mac1609_4 RXTXLostPackets 0
scalar RSUExampleScenario.node[14].nic.mac1609_4 TotalLostPackets 7335
scalar RSUExampleScenario.node[14].nic.mac1609_4 DroppedPacketsInMac 0
scalar RSUExampleScenario.node[14].nic.mac1609_4 TooLittleTime 0
scalar RSUExampleScenario.node[14].nic.mac1609_4 TimesIntoBackoff 1101
scalar RSUExampleScenario.node[14].nic.mac1609_4 SlotsBackoff 1681
scalar RSUExampleScenario.node[14].nic.mac1609_4 NumInternalContention 0
scalar RSUExampleScenario.node[14].nic.mac1609_4 totalBusyTime 7.450797
scalar RSUExampleScenario.node[14].nic.mac1609_4 retriesExceeded:count 0
attr source org_car2x_veins_modules_mac_sigRetriesExceeded
scalar RSUExampleScenario.node[14].nic.mac1609_4 sentAcks:count 0
attr source org_car2x_veins_modules_mac_sigSentAck
scalar RSUExampleScenario.node[14].nic.mac1609_4 sentPackets:count 1101
attr source org_car2x_veins_modules_mac_sigSentPacket
scalar RSUExampleScenario.node[14].nic.mac1609_4 collisions:count 0
attr source org_car2x_veins_modules_mac_sigCollision
scalar RSUExampleScenario.node[14].nic.mac1609_4 channelBusy:timeavg 0.067734518181902
attr source org_car2x_veins_modules_mac_sigChannelBusy
scalar RSUExampleScenario.node[14].veinsmobility startTime 10
scalar RSUExampleScenario.node[14].veinsmobility totalTime 110
scalar RSUExampleScenario.node[14].veinsmobility stopTime 120
scalar RSUExampleScenario.node[14].veinsmobility minSpeed 0.0016845376228207
scalar RSUExampleScenario.node[14].veinsmobility maxSpeed 8.8526852926594
scalar RSUExampleScenario.node[14].veinsmobility totalDistance 745.33514536543
scalar RSUExampleScenario.node[14].veinsmobility totalCO2Emission 225.93282643974
scalar RSUExampleScenario.node[16].appl generatedWSMs 1
scalar RSUExampleScenario.node[16].appl receivedWSMs 104
scalar RSUExampleScenario.node[16].appl generatedBSMs 1079
scalar RSUExampleScenario.node[16].appl receivedBSMs 64196
scalar RSUExampleScenario.node[16].appl generatedWSAs 0
scalar RSUExampleScenario.node[16].appl receivedWSAs 0
scalar RSUExampleScenario.node[16].nic.phy80211p busyTime 0.068429805375433
scalar RSUExampleScenario.node[16].nic.mac1609_4 ReceivedUnicastPackets 0
scalar RSUExampleScenario.node[16].nic.mac1609_4 ReceivedBroadcasts 64300
scalar RSUExampleScenario.node[16].nic.mac1609_4 SentPackets 1080
scalar RSUExampleScenario.node[16].nic.mac1609_4 SentAcknowledgements 0
scalar RSUExampleScenario.node[16].nic.mac1609_4 RetriesExceeded 0
scalar RSUExampleScenario.node[16].nic.mac1609_4 SNIRLostPackets 6547
scalar RSUExampleScenario.node[16].nic.mac1609_4 RXTXLostPackets 0
scalar RSUExampleScenario.node[16].nic.mac1609_4 TotalLostPackets 6547
scalar RSUExampleScenario.node[16].nic.mac1609_4 DroppedPacketsInMac 0
scalar RSUExampleScenario.node[16].nic.mac1609_4 TooLittleTime 0
scalar RSUExampleScenario.node[16].nic.mac1609_4 TimesIntoBackoff 1080
scalar RSUExampleScenario.node[16].nic.mac1609_4 SlotsBackoff 1687
scalar RSUExampleScenario.node[16].nic.mac1609_4 NumInternalContention 0
scalar RSUExampleScenario.node[16].nic.mac1609_4 totalBusyTime 7.416248
scalar RSUExampleScenario.node[16].nic.mac1609_4 retriesExceeded:count 0
attr source org_car2x_veins_modules_mac_sigRetriesExceeded
scalar RSUExampleScenario.node[16].nic.mac1609_4 sentAcks:count 0
attr source org_car2x_veins_modules_mac_sigSentAck
scalar RSUExampleScenario.node[16].nic.mac1609_4 sentPackets:count 1080
attr source org_car2x_veins_modules_mac_sigSentPacket
scalar RSUExampleScenario.node[16].nic.mac1609_4 collisions:count 0
attr source org_car2x_veins_modules_mac_sigCollision
scalar RSUExampleScenario.node[16].nic.mac1609_4 channelBusy:timeavg 0.068732604263291
attr source org_car2x_veins_modules_mac_sigChannelBusy
scalar RSUExampleScenario.node[16].veinsmobility startTime 12.1
scalar RSUExampleScenario.node[16].veinsmobility totalTime 107.9
scalar RSUExampleScenario.node[16].veinsmobility stopTime 120
scalar RSUExampleScenario.node[16].veinsmobility minSpeed 0.0040620964140353
scalar RSUExampleScenario.node[16].veinsmobility maxSpeed 9.4071064511317
scalar RSUExampleScenario.node[16].veinsmobility totalDistance 728.65037118894
scalar RSUExampleScenario.node[16].veinsmobility totalCO2Emission 230.82321995246
scalar RSUExampleScenario.node[17].appl generatedWSMs 1
scalar RSUExampleScenario.node[17].appl receivedWSMs 119
scalar RSUExampleScenario.node[17].appl generatedBSMs 1077
scalar RSUExampleScenario.node[17].appl receivedBSMs 69560
scalar RSUExampleScenario.node[17].appl generatedWSAs 0
scalar RSUExampleScenario.node[17].appl receivedWSAs 0
scalar RSUExampleScenario.node[17].nic.phy80211p busyTime 0.068525979572973
scalar RSUExampleScenario.node[17].nic.mac1609_4 ReceivedUnicastPackets 0
scalar RSUExampleScenario.node[17].nic.mac1609_4 ReceivedBroadcasts 69679
scalar RSUExampleScenario.node[17].nic.mac1609_4 SentPackets 1078
scalar RSUExampleScenario.node[17].nic.mac1609_4 SentAcknowledgements 0
scalar RSUExampleScenario.node[17].nic.mac1609_4 RetriesExceeded 0
scalar RSUExampleScenario.node[17].nic.mac1609_4 SNIRLostPackets 1136
scalar RSUExampleScenario.node[17].nic.mac1609_4 RXTXLostPackets 0
scalar RSUExampleScenario.node[17].nic.mac1609_4 TotalLostPackets 1136
scalar RSUExampleScenario.node[17].nic.mac1609_4 DroppedPacketsInMac 0
scalar RSUExampleScenario.node[17].nic.mac1609_4 TooLittleTime 0
scalar RSUExampleScenario.node[17].nic.mac1609_4 TimesIntoBackoff 1078
scalar RSUExampleScenario.node[17].nic.mac1609_4 SlotsBackoff 1583
scalar RSUExampleScenario.node[17].nic.mac1609_4 NumInternalContention 0
scalar RSUExampleScenario.node[17].nic.mac1609_4 totalBusyTime 7.41271
scalar RSUExampleScenario.node[17].nic.mac1609_4 retriesExceeded:count 0
attr source org_car2x_veins_modules_mac_sigRetriesExceeded
scalar RSUExampleScenario.node[17].nic.mac1609_4 sentAcks:count 0
attr source org_car2x_veins_modules_mac_sigSentAck
scalar RSUExampleScenario.node[17].nic.mac1609_4 sentPackets:count 1078
attr source org_car2x_veins_modules_mac_sigSentPacket
scalar RSUExampleScenario.node[17].nic.mac1609_4 collisions:count 0
attr source org_car2x_veins_modules_mac_sigCollision
scalar RSUExampleScenario.node[17].nic.mac1609_4 channelBusy:timeavg 0.068827390900735
attr source org_car2x_veins_modules_mac_sigChannelBusy
scalar RSUExampleScenario.node[17].veinsmobility startTime 12.3
scalar RSUExampleScenario.node[17].veinsmobility totalTime 107.7
scalar RSUExampleScenario.node[17].veinsmobility stopTime 120
scalar RSUExampleScenario.node[17].veinsmobility minSpeed 0
scalar RSUExampleScenario.node[17].veinsmobility maxSpeed 9.8554829555929
scalar RSUExampleScenario.node[17].veinsmobility totalDistance 221.39698030174
scalar RSUExampleScenario.node[17].veinsmobility totalCO2Emission 145.94628649081
scalar RSUExampleScenario.node[19].appl generatedWSMs 1
scalar RSUExampleScenario.node[19].appl receivedWSMs 104
scalar RSUExampleScenario.node[19].appl generatedBSMs 1057
scalar RSUExampleScenario.node[19].appl receivedBSMs 64557
scalar RSUExampleScenario.node[19].appl generatedWSAs 0
scalar RSUExampleScenario.node[19].appl receivedWSAs 0
scalar RSUExampleScenario.node[19].nic.phy80211p busyTime 0.069486092715318
scalar RSUExampleScenario.node[19].nic.mac1609_4 ReceivedUnicastPackets 0
scalar RSUExampleScenario.node[19].nic.mac1609_4 ReceivedBroadcasts 64661
scalar RSUExampleScenario.node[19].nic.mac1609_4 SentPackets 1058
scalar RSUExampleScenario.node[19].nic.mac1609_4 SentAcknowledgements 0
scalar RSUExampleScenario.node[19].nic.mac1609_4 RetriesExceeded 0
scalar RSUExampleScenario.node[19].nic.mac1609_4 SNIRLostPackets 5812
scalar RSUExampleScenario.node[19].nic.mac1609_4 RXTXLostPackets 1
scalar RSUExampleScenario.node[19].nic.mac1609_4 TotalLostPackets 5813
scalar RSUExampleScenario.node[19].nic.mac1609_4 DroppedPacketsInMac 0
scalar RSUExampleScenario.node[19].nic.mac1609_4 TooLittleTime 0
scalar RSUExampleScenario.node[19].nic.mac1609_4 TimesIntoBackoff 1563
scalar RSUExampleScenario.node[19].nic.mac1609_4 SlotsBackoff 2352
scalar RSUExampleScenario.node[19].nic.mac1609_4 NumInternalContention 0
scalar RSUExampleScenario.node[19].nic.mac1609_4 totalBusyTime 7.375146
scalar RSUExampleScenario.node[19].nic.mac1609_4 retriesExceeded:count 0
attr source org_car2x_veins_modules_mac_sigRetriesExceeded
scalar RSUExampleScenario.node[19].nic.mac1609_4 sentAcks:count 0
attr source org_car2x_veins_modules_mac_sigSentAck
scalar RSUExampleScenario.node[19].nic.mac1609_4 sentPackets:count 1058
attr source org_car2x_veins_modules_mac_sigSentPacket
scalar RSUExampleScenario.node[19].nic.mac1609_4 collisions:count 0
attr source org_car2x_veins_modules_mac_sigCollision
scalar RSUExampleScenario.node[19].nic.mac1609_4 channelBusy:timeavg 0.069774323557323
attr source org_car2x_veins_modules_mac_sigChannelBusy
scalar RSUExampleScenario.node[19].veinsmobility startTime 14.3
scalar RSUExampleScenario.node[19].veinsmobility totalTime 105.7
scalar RSUExampleScenario.node[19].veinsmobility stopTime 120
scalar RSUExampleScenario.node[19].veinsmobility minSpeed 0.0086034464460301
scalar RSUExampleScenario.node[19].veinsmobility maxSpeed 9.9666268347049
scalar RSUExampleScenario.node[19].veinsmobility totalDistance 711.91342944476
scalar RSUExampleScenario.node[19].veinsmobility totalCO2Emission 226.39872747725
scalar RSUExampleScenario.node[20].appl generatedWSMs 1
scalar RSUExampleScenario.node[20].appl receivedWSMs 111
scalar RSUExampleScenario.node[20].appl generatedBSMs 1038
scalar RSUExampleScenario.node[20].appl receivedBSMs 64874
scalar RSUExampleScenario.node[20].appl generatedWSAs 0
scalar RSUExampleScenario.node[20].appl receivedWSAs 0
scalar RSUExampleScenario.node[20].nic.phy80211p busyTime 0.070397302504904
scalar RSUExampleScenario.node[20].nic.mac1609_4 ReceivedUnicastPackets 0
scalar RSUExampleScenario.node[20].nic.mac1609_4 ReceivedBroadcasts 64985
scalar RSUExampleScenario.node[20].nic.mac1609_4 SentPackets 1039
scalar RSUExampleScenario.node[20].nic.mac1609_4 SentAcknowledgements 0
scalar RSUExampleScenario.node[20].nic.mac1609_4 RetriesExceeded 0
scalar RSUExampleScenario.node[20].nic.mac1609_4 SNIRLostPackets 5128
scalar RSUExampleScenario.node[20].nic.mac1609_4 RXTXLostPackets 0
scalar RSUExampleScenario.node[20].nic.mac1609_4 TotalLostPackets 5128
scalar RSUExampleScenario.node[20].nic.mac1609_4 DroppedPacketsInMac 0
scalar RSUExampleScenario.node[20].nic.mac1609_4 TooLittleTime 0
scalar RSUExampleScenario.node[20].nic.mac1609_4 TimesIntoBackoff 1039
scalar RSUExampleScenario.node[20].nic.mac1609_4 SlotsBackoff 1507
scalar RSUExampleScenario.node[20].nic.mac1609_4 NumInternalContention 0
scalar RSUExampleScenario.node[20].nic.mac1609_4 totalBusyTime 7.335607
scalar RSUExampleScenario.node[20].nic.mac1609_4 retriesExceeded:count 0
attr source org_car2x_veins_modules_mac_sigRetriesExceeded
scalar RSUExampleScenario.node[20].nic.mac1609_4 sentAcks:count 0
attr source org_car2x_veins_modules_mac_sigSentAck
scalar RSUExampleScenario.node[20].nic.mac1609_4 sentPackets:count 1039
attr source org_car2x_veins_modules_mac_sigSentPacket
scalar RSUExampleScenario.node[20].nic.mac1609_4 collisions:count 0
attr source org_car2x_veins_modules_mac_sigCollision
scalar RSUExampleScenario.node[20].nic.mac1609_4 channelBusy:timeavg 0.070670587668679
attr source org_car2x_veins_modules_mac_sigChannelBusy
scalar RSUExampleScenario.node[20].veinsmobility startTime 16.2
scalar RSUExampleScenario.node[20].veinsmobility totalTime 103.8
scalar RSUExampleScenario.node[20].veinsmobility stopTime 120
scalar RSUExampleScenario.node[20].veinsmobility minSpeed 0.016448796123497
scalar RSUExampleScenario.node[20].veinsmobility maxSpeed 10.109747228021
scalar RSUExampleScenario.node[20].veinsmobility totalDistance 695.22999349319
scalar RSUExampleScenario.node[20].veinsmobility totalCO2Emission 224.48897139649
scalar RSUExampleScenario.node[21].appl generatedWSMs 1
scalar RSUExampleScenario.node[21].appl receivedWSMs 119
scalar RSUExampleScenario.node[21].appl generatedBSMs 1038
scalar RSUExampleScenario.node[21].appl receivedBSMs 68819
scalar RSUExampleScenario.node[21].appl generatedWSAs 0
scalar RSUExampleScenario.node[21].appl receivedWSAs 0
scalar RSUExampleScenario.node[21].nic.phy80211p busyTime 0.070395067437466
scalar RSUExampleScenario.node[21].nic.mac1609_4 ReceivedUnicastPackets 0
scalar RSUExampleScenario.node[21].nic.mac1609_4 ReceivedBroadcasts 68938
scalar RSUExampleScenario.node[21].nic.mac1609_4 SentPackets 1039
scalar RSUExampleScenario.node[21].nic.mac1609_4 SentAcknowledgements 0
scalar RSUExampleScenario.node[21].nic.mac1609_4 RetriesExceeded 0
scalar RSUExampleScenario.node[21].nic.mac1609_4 SNIRLostPackets 1174
scalar RSUExampleScenario.node[21].nic.mac1609_4 RXTXLostPackets 1
scalar RSUExampleScenario.node[21].nic.mac1609_4 TotalLostPackets 1175
scalar RSUExampleScenario.node[21].nic.mac1609_4 DroppedPacketsInMac 0
scalar RSUExampleScenario.node[21].nic.mac1609_4 TooLittleTime 0
scalar RSUExampleScenario.node[21].nic.mac1609_4 TimesIntoBackoff 1039
scalar RSUExampleScenario.node[21].nic.mac1609_4 SlotsBackoff 1541
scalar RSUExampleScenario.node[21].nic.mac1609_4 NumInternalContention 0
scalar RSUExampleScenario.node[21].nic.mac1609_4 totalBusyTime 7.335607
scalar RSUExampleScenario.node[21].nic.mac1609_4 retriesExceeded:count 0
attr source org_car2x_veins_modules_mac_sigRetriesExceeded
scalar RSUExampleScenario.node[21].nic.mac1609_4 sentAcks:count 0
attr source org_car2x_veins_modules_mac_sigSentAck
scalar RSUExampleScenario.node[21].nic.mac1609_4 sentPackets:count 1039
attr source org_car2x_veins_modules_mac_sigSentPacket
scalar RSUExampleScenario.node[21].nic.mac1609_4 collisions:count 0
attr source org_car2x_veins_modules_mac_sigCollision
scalar RSUExampleScenario.node[21].nic.mac1609_4 channelBusy:timeavg 0.070670587668679
attr source org_car2x_veins_modules_mac_sigChannelBusy
scalar RSUExampleScenario.node[21].veinsmobility startTime 16.2
scalar RSUExampleScenario.node[21].veinsmobility totalTime 103.8
scalar RSUExampleScenario.node[21].veinsmobility stopTime 120
scalar RSUExampleScenario.node[21].veinsmobility minSpeed 0
scalar RSUExampleScenario.node[21].veinsmobility maxSpeed 10.565747575599
scalar RSUExampleScenario.node[21].veinsmobility totalDistance 223.5969801998
scalar RSUExampleScenario.node[21].veinsmobility totalCO2Emission 140.81589569177
scalar RSUExampleScenario.node[22].appl generatedWSMs 1
scalar RSUExampleScenario.node[22].appl receivedWSMs 119
scalar RSUExampleScenario.node[22].appl generatedBSMs 1018
scalar RSUExampleScenario.node[22].appl receivedBSMs 68411
scalar RSUExampleScenario.node[22].appl generatedWSAs 0
scalar RSUExampleScenario.node[22].appl receivedWSAs 0
scalar RSUExampleScenario.node[22].nic.phy80211p busyTime 0.07135127701384
scalar RSUExampleScenario.node[22].nic.mac1609_4 ReceivedUnicastPackets 0
scalar RSUExampleScenario.node[22].nic.mac1609_4 ReceivedBroadcasts 68530
scalar RSUExampleScenario.node[22].nic.mac1609_4 SentPackets 1019
scalar RSUExampleScenario.node[22].nic.mac1609_4 SentAcknowledgements 0
scalar RSUExampleScenario.node[22].nic.mac1609_4 RetriesExceeded 0
scalar RSUExampleScenario.node[22].nic.mac1609_4 SNIRLostPackets 1163
scalar RSUExampleScenario.node[22].nic.mac1609_4 RXTXLostPackets 0
scalar RSUExampleScenario.node[22].nic.mac1609_4 TotalLostPackets 1163
scalar RSUExampleScenario.node[22].nic.mac1609_4 DroppedPacketsInMac 0
scalar RSUExampleScenario.node[22].nic.mac1609_4 TooLittleTime 0
scalar RSUExampleScenario.node[22].nic.mac1609_4 TimesIntoBackoff 1019
scalar RSUExampleScenario.node[22].nic.mac1609_4 SlotsBackoff 1529
scalar RSUExampleScenario.node[22].nic.mac1609_4 NumInternalContention 0
scalar RSUExampleScenario.node[22].nic.mac1609_4 totalBusyTime 7.289827
scalar RSUExampleScenario.node[22].nic.mac1609_4 retriesExceeded:count 0
attr source org_car2x_veins_modules_mac_sigRetriesExceeded
scalar RSUExampleScenario.node[22].nic.mac1609_4 sentAcks:count 0
attr source org_car2x_veins_modules_mac_sigSentAck
scalar RSUExampleScenario.node[22].nic.mac1609_4 sentPackets:count 1019
attr source org_car2x_veins_modules_mac_sigSentPacket
scalar RSUExampleScenario.node[22].nic.mac1609_4 collisions:count 0
attr source org_car2x_veins_modules_mac_sigCollision
scalar RSUExampleScenario.node[22].nic.mac1609_4 channelBusy:timeavg 0.071609302554113
attr source org_car2x_veins_modules_mac_sigChannelBusy
scalar RSUExampleScenario.node[22].veinsmobility startTime 18.2
scalar RSUExampleScenario.node[22].veinsmobility totalTime 101.8
scalar RSUExampleScenario.node[22].veinsmobility stopTime 120
scalar RSUExampleScenario.node[22].veinsmobility minSpeed 0
scalar RSUExampleScenario.node[22].veinsmobility maxSpeed 7.2405127524329
scalar RSUExampleScenario.node[22].veinsmobility totalDistance 213.89597066084
scalar RSUExampleScenario.node[22].veinsmobility totalCO2Emission 135.90152651768
scalar RSUExampleScenario.node[23].appl generatedWSMs 1
scalar RSUExampleScenario.node[23].appl receivedWSMs 112
scalar RSUExampleScenario.node[23].appl generatedBSMs 1017
scalar RSUExampleScenario.node[23].appl receivedBSMs 65017
scalar RSUExampleScenario.node[23].appl generatedWSAs 0
scalar RSUExampleScenario.node[23].appl receivedWSAs 0
scalar RSUExampleScenario.node[23].nic.phy80211p busyTime 0.071398938053184
scalar RSUExampleScenario.node[23].nic.mac1609_4 ReceivedUnicastPackets 0
scalar RSUExampleScenario.node[23].nic.mac1609_4 ReceivedBroadcasts 65129
scalar RSUExampleScenario.node[23].nic.mac1609_4 SentPackets 1018
scalar RSUExampleScenario.node[23].nic.mac1609_4 SentAcknowledgements 0
scalar RSUExampleScenario.node[23].nic.mac1609_4 RetriesExceeded 0
scalar RSUExampleScenario.node[23].nic.mac1609_4 SNIRLostPackets 4542
scalar RSUExampleScenario.node[23].nic.mac1609_4 RXTXLostPackets 0
scalar RSUExampleScenario.node[23].nic.mac1609_4 TotalLostPackets 4542
scalar RSUExampleScenario.node[23].nic.mac1609_4 DroppedPacketsInMac 0
scalar RSUExampleScenario.node[23].nic.mac1609_4 TooLittleTime 0
scalar RSUExampleScenario.node[23].nic.mac1609_4 TimesIntoBackoff 1018
scalar RSUExampleScenario.node[23].nic.mac1609_4 SlotsBackoff 1613
scalar RSUExampleScenario.node[23].nic.mac1609_4 NumInternalContention 0
scalar RSUExampleScenario.node[23].nic.mac1609_4 totalBusyTime 7.287434
scalar RSUExampleScenario.node[23].nic.mac1609_4 retriesExceeded:count 0
attr source org_car2x_veins_modules_mac_sigRetriesExceeded
scalar RSUExampleScenario.node[23].nic.mac1609_4 sentAcks:count 0
attr source org_car2x_veins_modules_mac_sigSentAck
scalar RSUExampleScenario.node[23].nic.mac1609_4 sentPackets:count 1018
attr source org_car2x_veins_modules_mac_sigSentPacket
scalar RSUExampleScenario.node[23].nic.mac1609_4 collisions:count 0
attr source org_car2x_veins_modules_mac_sigCollision
scalar RSUExampleScenario.node[23].nic.mac1609_4 channelBusy:timeavg 0.07165618485751
attr source org_car2x_veins_modules_mac_sigChannelBusy
scalar RSUExampleScenario.node[23].veinsmobility startTime 18.3
scalar RSUExampleScenario.node[23].veinsmobility totalTime 101.7
scalar RSUExampleScenario.node[23].veinsmobility stopTime 120
scalar RSUExampleScenario.node[23].veinsmobility minSpeed 0.027775043218896
scalar RSUExampleScenario.node[23].veinsmobility maxSpeed 9.85944770613
scalar RSUExampleScenario.node[23].veinsmobility totalDistance 678.55830678016
scalar RSUExampleScenario.node[23].veinsmobility totalCO2Emission 222.5344996372
scalar RSUExampleScenario.node[25].appl generatedWSMs 1
scalar RSUExampleScenario.node[25].appl receivedWSMs 116
scalar RSUExampleScenario.node[25].appl generatedBSMs 996
scalar RSUExampleScenario.node[25].appl receivedBSMs 65112
scalar RSUExampleScenario.node[25].appl generatedWSAs 0
scalar RSUExampleScenario.node[25].appl receivedWSAs 0
scalar RSUExampleScenario.node[25].nic.phy80211p busyTime 0.07239582329326
scalar RSUExampleScenario.node[25].nic.mac1609_4 ReceivedUnicastPackets 0
scalar RSUExampleScenario.node[25].nic.mac1609_4 ReceivedBroadcasts 65228
scalar RSUExampleScenario.node[25].nic.mac1609_4 SentPackets 997
scalar RSUExampleScenario.node[25].nic.mac1609_4 SentAcknowledgements 0
scalar RSUExampleScenario.node[25].nic.mac1609_4 RetriesExceeded 0
scalar RSUExampleScenario.node[25].nic.mac1609_4 SNIRLostPackets 3956
scalar RSUExampleScenario.node[25].nic.mac1609_4 RXTXLostPackets 0
scalar RSUExampleScenario.node[25].nic.mac1609_4 TotalLostPackets 3956
scalar RSUExampleScenario.node[25].nic.mac1609_4 DroppedPacketsInMac 0
scalar RSUExampleScenario.node[25].nic.mac1609_4 TooLittleTime 0
scalar RSUExampleScenario.node[25].nic.mac1609_4 TimesIntoBackoff 997
scalar RSUExampleScenario.node[25].nic.mac1609_4 SlotsBackoff 1451
scalar RSUExampleScenario.node[25].nic.mac1609_4 NumInternalContention 0
scalar RSUExampleScenario.node[25].nic.mac1609_4 totalBusyTime 7.234584809544
scalar RSUExampleScenario.node[25].nic.mac1609_4 retriesExceeded:count 0
attr source org_car2x_veins_modules_mac_sigRetriesExceeded
scalar RSUExampleScenario.node[25].nic.mac1609_4 sentAcks:count 0
attr source org_car2x_veins_modules_mac_sigSentAck
scalar RSUExampleScenario.node[25].nic.mac1609_4 sentPackets:count 997
attr source org_car2x_veins_modules_mac_sigSentPacket
scalar RSUExampleScenario.node[25].nic.mac1609_4 collisions:count 0
attr source org_car2x_veins_modules_mac_sigCollision
scalar RSUExampleScenario.node[25].nic.mac1609_4 channelBusy:timeavg 0.072636393670206
attr source org_car2x_veins_modules_mac_sigChannelBusy
scalar RSUExampleScenario.node[25].veinsmobility startTime 20.4
scalar RSUExampleScenario.node[25].veinsmobility totalTime 99.6
scalar RSUExampleScenario.node[25].veinsmobility stopTime 120
scalar RSUExampleScenario.node[25].veinsmobility minSpeed 0.042970259650855
scalar RSUExampleScenario.node[25].veinsmobility maxSpeed 10.4965780237
scalar RSUExampleScenario.node[25].veinsmobility totalDistance 661.86273513948
scalar RSUExampleScenario.node[25].veinsmobility totalCO2Emission 214.96865213559
scalar RSUExampleScenario.node[26].appl generatedWSMs 1
scalar RSUExampleScenario.node[26].appl receivedWSMs 119
scalar RSUExampleScenario.node[26].appl generatedBSMs 979
scalar RSUExampleScenario.node[26].appl receivedBSMs 67465
scalar RSUExampleScenario.node[26].appl generatedWSAs 0
scalar RSUExampleScenario.node[26].appl receivedWSAs 0
scalar RSUExampleScenario.node[26].nic.phy80211p busyTime 0.073201470888749
scalar RSUExampleScenario.node[26].nic.mac1609_4 ReceivedUnicastPackets 0
scalar RSUExampleScenario.node[26].nic.mac1609_4 ReceivedBroadcasts 67584
scalar RSUExampleScenario.node[26].nic.mac1609_4 SentPackets 980
scalar RSUExampleScenario.node[26].nic.mac1609_4 SentAcknowledgements 0
scalar RSUExampleScenario.node[26].nic.mac1609_4 RetriesExceeded 0
scalar RSUExampleScenario.node[26].nic.mac1609_4 SNIRLostPackets 1175
scalar RSUExampleScenario.node[26].nic.mac1609_4 RXTXLostPackets 0
scalar RSUExampleScenario.node[26].nic.mac1609_4 TotalLostPackets 1175
scalar RSUExampleScenario.node[26].nic.mac1609_4 DroppedPacketsInMac 0
scalar RSUExampleScenario.node[26].nic.mac1609_4 TooLittleTime 0
scalar RSUExampleScenario.node[26].nic.mac1609_4 TimesIntoBackoff 980
scalar RSUExampleScenario.node[26].nic.mac1609_4 SlotsBackoff 1412
scalar RSUExampleScenario.node[26].nic.mac1609_4 NumInternalContention 0
scalar RSUExampleScenario.node[26].nic.mac1609_4 totalBusyTime 7.188596
scalar RSUExampleScenario.node[26].nic.mac1609_4 retriesExceeded:count 0
attr source org_car2x_veins_modules_mac_sigRetriesExceeded
scalar RSUExampleScenario.node[26].nic.mac1609_4 sentAcks:count 0
attr source org_car2x_veins_modules_mac_sigSentAck
scalar RSUExampleScenario.node[26].nic.mac1609_4 sentPackets:count 980
attr source org_car2x_veins_modules_mac_sigSentPacket
scalar RSUExampleScenario.node[26].nic.mac1609_4 collisions:count 0
attr source org_car2x_veins_modules_mac_sigCollision
scalar RSUExampleScenario.node[26].nic.mac1609_4 channelBusy:timeavg 0.073427946884662
attr source org_car2x_veins_modules_mac_sigChannelBusy
scalar RSUExampleScenario.node[26].veinsmobility startTime 22.1
scalar RSUExampleScenario.node[26].veinsmobility totalTime 97.9
scalar RSUExampleScenario.node[26].veinsmobility stopTime 120
scalar RSUExampleScenario.node[26].veinsmobility minSpeed 0
scalar RSUExampleScenario.node[26].veinsmobility maxSpeed 10.225466671038
scalar RSUExampleScenario.node[26].veinsmobility totalDistance 216.09597054072
[...]
scalar RSUExampleScenario.node[118].appl receivedBSMs 7439
scalar RSUExampleScenario.node[118].appl generatedWSAs 0
scalar RSUExampleScenario.node[118].appl receivedWSAs 0
scalar RSUExampleScenario.node[118].nic.phy80211p busyTime 0.1119694736842
scalar RSUExampleScenario.node[118].nic.mac1609_4 ReceivedUnicastPackets 0
scalar RSUExampleScenario.node[118].nic.mac1609_4 ReceivedBroadcasts 7445
scalar RSUExampleScenario.node[118].nic.mac1609_4 SentPackets 77
scalar RSUExampleScenario.node[118].nic.mac1609_4 SentAcknowledgements 0
scalar RSUExampleScenario.node[118].nic.mac1609_4 RetriesExceeded 0
scalar RSUExampleScenario.node[118].nic.mac1609_4 SNIRLostPackets 730
scalar RSUExampleScenario.node[118].nic.mac1609_4 RXTXLostPackets 0
scalar RSUExampleScenario.node[118].nic.mac1609_4 TotalLostPackets 730
scalar RSUExampleScenario.node[118].nic.mac1609_4 DroppedPacketsInMac 0
scalar RSUExampleScenario.node[118].nic.mac1609_4 TooLittleTime 0
scalar RSUExampleScenario.node[118].nic.mac1609_4 TimesIntoBackoff 77
scalar RSUExampleScenario.node[118].nic.mac1609_4 SlotsBackoff 134
scalar RSUExampleScenario.node[118].nic.mac1609_4 NumInternalContention 0
scalar RSUExampleScenario.node[118].nic.mac1609_4 totalBusyTime 0.844829
scalar RSUExampleScenario.node[118].nic.mac1609_4 retriesExceeded:count 0
attr source org_car2x_veins_modules_mac_sigRetriesExceeded
scalar RSUExampleScenario.node[118].nic.mac1609_4 sentAcks:count 0
attr source org_car2x_veins_modules_mac_sigSentAck
scalar RSUExampleScenario.node[118].nic.mac1609_4 sentPackets:count 77
attr source org_car2x_veins_modules_mac_sigSentPacket
scalar RSUExampleScenario.node[118].nic.mac1609_4 collisions:count 0
attr source org_car2x_veins_modules_mac_sigCollision
scalar RSUExampleScenario.node[118].nic.mac1609_4 channelBusy:timeavg 0.11116171052631
attr source org_car2x_veins_modules_mac_sigChannelBusy
scalar RSUExampleScenario.node[118].veinsmobility startTime 112.4
scalar RSUExampleScenario.node[118].veinsmobility totalTime 7.6
scalar RSUExampleScenario.node[118].veinsmobility stopTime 120
scalar RSUExampleScenario.node[118].veinsmobility minSpeed 2.1032764772375
scalar RSUExampleScenario.node[118].veinsmobility maxSpeed 3.5791153016065
scalar RSUExampleScenario.node[118].veinsmobility totalDistance 25.70137936998
scalar RSUExampleScenario.node[118].veinsmobility totalCO2Emission 10.682248537125
scalar RSUExampleScenario.node[119].appl generatedWSMs 1
scalar RSUExampleScenario.node[119].appl receivedWSMs 6
scalar RSUExampleScenario.node[119].appl generatedBSMs 75
scalar RSUExampleScenario.node[119].appl receivedBSMs 7370
scalar RSUExampleScenario.node[119].appl generatedWSAs 0
scalar RSUExampleScenario.node[119].appl receivedWSAs 0
scalar RSUExampleScenario.node[119].nic.phy80211p busyTime 0.11196479999999
scalar RSUExampleScenario.node[119].nic.mac1609_4 ReceivedUnicastPackets 0
scalar RSUExampleScenario.node[119].nic.mac1609_4 ReceivedBroadcasts 7376
scalar RSUExampleScenario.node[119].nic.mac1609_4 SentPackets 76
scalar RSUExampleScenario.node[119].nic.mac1609_4 SentAcknowledgements 0
scalar RSUExampleScenario.node[119].nic.mac1609_4 RetriesExceeded 0
scalar RSUExampleScenario.node[119].nic.mac1609_4 SNIRLostPackets 691
scalar RSUExampleScenario.node[119].nic.mac1609_4 RXTXLostPackets 0
scalar RSUExampleScenario.node[119].nic.mac1609_4 TotalLostPackets 691
scalar RSUExampleScenario.node[119].nic.mac1609_4 DroppedPacketsInMac 0
scalar RSUExampleScenario.node[119].nic.mac1609_4 TooLittleTime 0
scalar RSUExampleScenario.node[119].nic.mac1609_4 TimesIntoBackoff 76
scalar RSUExampleScenario.node[119].nic.mac1609_4 SlotsBackoff 118
scalar RSUExampleScenario.node[119].nic.mac1609_4 NumInternalContention 0
scalar RSUExampleScenario.node[119].nic.mac1609_4 totalBusyTime 0.8337
scalar RSUExampleScenario.node[119].nic.mac1609_4 retriesExceeded:count 0
attr source org_car2x_veins_modules_mac_sigRetriesExceeded
scalar RSUExampleScenario.node[119].nic.mac1609_4 sentAcks:count 0
attr source org_car2x_veins_modules_mac_sigSentAck
scalar RSUExampleScenario.node[119].nic.mac1609_4 sentPackets:count 76
attr source org_car2x_veins_modules_mac_sigSentPacket
scalar RSUExampleScenario.node[119].nic.mac1609_4 collisions:count 0
attr source org_car2x_veins_modules_mac_sigCollision
scalar RSUExampleScenario.node[119].nic.mac1609_4 channelBusy:timeavg 0.11115999999999
attr source org_car2x_veins_modules_mac_sigChannelBusy
scalar RSUExampleScenario.node[119].veinsmobility startTime 112.5
scalar RSUExampleScenario.node[119].veinsmobility totalTime 7.5
scalar RSUExampleScenario.node[119].veinsmobility stopTime 120
scalar RSUExampleScenario.node[119].veinsmobility minSpeed 2.3472433741622
scalar RSUExampleScenario.node[119].veinsmobility maxSpeed 4.4160733077668
scalar RSUExampleScenario.node[119].veinsmobility totalDistance 29.239884262649
scalar RSUExampleScenario.node[119].veinsmobility totalCO2Emission 11.374731250604
scalar RSUExampleScenario.node[120].appl generatedWSMs 1
scalar RSUExampleScenario.node[120].appl receivedWSMs 6
scalar RSUExampleScenario.node[120].appl generatedBSMs 69
scalar RSUExampleScenario.node[120].appl receivedBSMs 6730
scalar RSUExampleScenario.node[120].appl generatedWSAs 0
scalar RSUExampleScenario.node[120].appl receivedWSAs 0
scalar RSUExampleScenario.node[120].nic.phy80211p busyTime 0.11196405797101
scalar RSUExampleScenario.node[120].nic.mac1609_4 ReceivedUnicastPackets 0
scalar RSUExampleScenario.node[120].nic.mac1609_4 ReceivedBroadcasts 6736
scalar RSUExampleScenario.node[120].nic.mac1609_4 SentPackets 70
scalar RSUExampleScenario.node[120].nic.mac1609_4 SentAcknowledgements 0
scalar RSUExampleScenario.node[120].nic.mac1609_4 RetriesExceeded 0
scalar RSUExampleScenario.node[120].nic.mac1609_4 SNIRLostPackets 685
scalar RSUExampleScenario.node[120].nic.mac1609_4 RXTXLostPackets 0
scalar RSUExampleScenario.node[120].nic.mac1609_4 TotalLostPackets 685
scalar RSUExampleScenario.node[120].nic.mac1609_4 DroppedPacketsInMac 0
scalar RSUExampleScenario.node[120].nic.mac1609_4 TooLittleTime 0
scalar RSUExampleScenario.node[120].nic.mac1609_4 TimesIntoBackoff 70
scalar RSUExampleScenario.node[120].nic.mac1609_4 SlotsBackoff 120
scalar RSUExampleScenario.node[120].nic.mac1609_4 NumInternalContention 0
scalar RSUExampleScenario.node[120].nic.mac1609_4 totalBusyTime 0.767758
scalar RSUExampleScenario.node[120].nic.mac1609_4 retriesExceeded:count 0
attr source org_car2x_veins_modules_mac_sigRetriesExceeded
scalar RSUExampleScenario.node[120].nic.mac1609_4 sentAcks:count 0
attr source org_car2x_veins_modules_mac_sigSentAck
scalar RSUExampleScenario.node[120].nic.mac1609_4 sentPackets:count 70
attr source org_car2x_veins_modules_mac_sigSentPacket
scalar RSUExampleScenario.node[120].nic.mac1609_4 collisions:count 0
attr source org_car2x_veins_modules_mac_sigCollision
scalar RSUExampleScenario.node[120].nic.mac1609_4 channelBusy:timeavg 0.11126927536231
attr source org_car2x_veins_modules_mac_sigChannelBusy
scalar RSUExampleScenario.node[120].veinsmobility startTime 113.1
scalar RSUExampleScenario.node[120].veinsmobility totalTime 6.9
scalar RSUExampleScenario.node[120].veinsmobility stopTime 120
scalar RSUExampleScenario.node[120].veinsmobility minSpeed 1.20452716931
scalar RSUExampleScenario.node[120].veinsmobility maxSpeed 2.9924586338362
scalar RSUExampleScenario.node[120].veinsmobility totalDistance 17.723937461695
scalar RSUExampleScenario.node[120].veinsmobility totalCO2Emission 10.264159644298
scalar RSUExampleScenario.node[121].appl generatedWSMs 1
scalar RSUExampleScenario.node[121].appl receivedWSMs 3
scalar RSUExampleScenario.node[121].appl generatedBSMs 52
scalar RSUExampleScenario.node[121].appl receivedBSMs 5114
scalar RSUExampleScenario.node[121].appl generatedWSAs 0
scalar RSUExampleScenario.node[121].appl receivedWSAs 0
scalar RSUExampleScenario.node[121].nic.phy80211p busyTime 0.11189384615384
scalar RSUExampleScenario.node[121].nic.mac1609_4 ReceivedUnicastPackets 0
scalar RSUExampleScenario.node[121].nic.mac1609_4 ReceivedBroadcasts 5117
scalar RSUExampleScenario.node[121].nic.mac1609_4 SentPackets 53
scalar RSUExampleScenario.node[121].nic.mac1609_4 SentAcknowledgements 0
scalar RSUExampleScenario.node[121].nic.mac1609_4 RetriesExceeded 0
scalar RSUExampleScenario.node[121].nic.mac1609_4 SNIRLostPackets 474
scalar RSUExampleScenario.node[121].nic.mac1609_4 RXTXLostPackets 0
scalar RSUExampleScenario.node[121].nic.mac1609_4 TotalLostPackets 474
scalar RSUExampleScenario.node[121].nic.mac1609_4 DroppedPacketsInMac 0
scalar RSUExampleScenario.node[121].nic.mac1609_4 TooLittleTime 0
scalar RSUExampleScenario.node[121].nic.mac1609_4 TimesIntoBackoff 53
scalar RSUExampleScenario.node[121].nic.mac1609_4 SlotsBackoff 74
scalar RSUExampleScenario.node[121].nic.mac1609_4 NumInternalContention 0
scalar RSUExampleScenario.node[121].nic.mac1609_4 totalBusyTime 0.579533
scalar RSUExampleScenario.node[121].nic.mac1609_4 retriesExceeded:count 0
attr source org_car2x_veins_modules_mac_sigRetriesExceeded
scalar RSUExampleScenario.node[121].nic.mac1609_4 sentAcks:count 0
attr source org_car2x_veins_modules_mac_sigSentAck
scalar RSUExampleScenario.node[121].nic.mac1609_4 sentPackets:count 53
attr source org_car2x_veins_modules_mac_sigSentPacket
scalar RSUExampleScenario.node[121].nic.mac1609_4 collisions:count 0
attr source org_car2x_veins_modules_mac_sigCollision
scalar RSUExampleScenario.node[121].nic.mac1609_4 channelBusy:timeavg 0.11144865384615
attr source org_car2x_veins_modules_mac_sigChannelBusy
scalar RSUExampleScenario.node[121].veinsmobility startTime 114.8
scalar RSUExampleScenario.node[121].veinsmobility totalTime 5.2
scalar RSUExampleScenario.node[121].veinsmobility stopTime 120
scalar RSUExampleScenario.node[121].veinsmobility minSpeed 2.0163956545939
scalar RSUExampleScenario.node[121].veinsmobility maxSpeed 3.9473040962229
scalar RSUExampleScenario.node[121].veinsmobility totalDistance 17.865969489543
scalar RSUExampleScenario.node[121].veinsmobility totalCO2Emission 7.9869989563008
scalar RSUExampleScenario.node[122].appl generatedWSMs 0
scalar RSUExampleScenario.node[122].appl receivedWSMs 1
scalar RSUExampleScenario.node[122].appl generatedBSMs 37
scalar RSUExampleScenario.node[122].appl receivedBSMs 3625
scalar RSUExampleScenario.node[122].appl generatedWSAs 0
scalar RSUExampleScenario.node[122].appl receivedWSAs 0
scalar RSUExampleScenario.node[122].nic.phy80211p busyTime 0.11212972972973
scalar RSUExampleScenario.node[122].nic.mac1609_4 ReceivedUnicastPackets 0
scalar RSUExampleScenario.node[122].nic.mac1609_4 ReceivedBroadcasts 3626
scalar RSUExampleScenario.node[122].nic.mac1609_4 SentPackets 37
scalar RSUExampleScenario.node[122].nic.mac1609_4 SentAcknowledgements 0
scalar RSUExampleScenario.node[122].nic.mac1609_4 RetriesExceeded 0
scalar RSUExampleScenario.node[122].nic.mac1609_4 SNIRLostPackets 362
scalar RSUExampleScenario.node[122].nic.mac1609_4 RXTXLostPackets 0
scalar RSUExampleScenario.node[122].nic.mac1609_4 TotalLostPackets 362
scalar RSUExampleScenario.node[122].nic.mac1609_4 DroppedPacketsInMac 0
scalar RSUExampleScenario.node[122].nic.mac1609_4 TooLittleTime 0
scalar RSUExampleScenario.node[122].nic.mac1609_4 TimesIntoBackoff 37
scalar RSUExampleScenario.node[122].nic.mac1609_4 SlotsBackoff 52
scalar RSUExampleScenario.node[122].nic.mac1609_4 NumInternalContention 0
scalar RSUExampleScenario.node[122].nic.mac1609_4 totalBusyTime 0.413357
scalar RSUExampleScenario.node[122].nic.mac1609_4 retriesExceeded:count 0
attr source org_car2x_veins_modules_mac_sigRetriesExceeded
scalar RSUExampleScenario.node[122].nic.mac1609_4 sentAcks:count 0
attr source org_car2x_veins_modules_mac_sigSentAck
scalar RSUExampleScenario.node[122].nic.mac1609_4 sentPackets:count 37
attr source org_car2x_veins_modules_mac_sigSentPacket
scalar RSUExampleScenario.node[122].nic.mac1609_4 collisions:count 0
attr source org_car2x_veins_modules_mac_sigCollision
scalar RSUExampleScenario.node[122].nic.mac1609_4 channelBusy:timeavg 0.1117181081081
attr source org_car2x_veins_modules_mac_sigChannelBusy
scalar RSUExampleScenario.node[122].veinsmobility startTime 116.3
scalar RSUExampleScenario.node[122].veinsmobility totalTime 3.7
scalar RSUExampleScenario.node[122].veinsmobility stopTime 120
scalar RSUExampleScenario.node[122].veinsmobility minSpeed 0.87740127552305
scalar RSUExampleScenario.node[122].veinsmobility maxSpeed 2.563227987401
scalar RSUExampleScenario.node[122].veinsmobility totalDistance 7.6207838089251
scalar RSUExampleScenario.node[122].veinsmobility totalCO2Emission 5.3291817691017
scalar RSUExampleScenario.node[123].appl generatedWSMs 0
scalar RSUExampleScenario.node[123].appl receivedWSMs 1
scalar RSUExampleScenario.node[123].appl generatedBSMs 27
scalar RSUExampleScenario.node[123].appl receivedBSMs 2671
scalar RSUExampleScenario.node[123].appl generatedWSAs 0
scalar RSUExampleScenario.node[123].appl receivedWSAs 0
scalar RSUExampleScenario.node[123].nic.phy80211p busyTime 0.11244444444444
scalar RSUExampleScenario.node[123].nic.mac1609_4 ReceivedUnicastPackets 0
scalar RSUExampleScenario.node[123].nic.mac1609_4 ReceivedBroadcasts 2672
scalar RSUExampleScenario.node[123].nic.mac1609_4 SentPackets 27
scalar RSUExampleScenario.node[123].nic.mac1609_4 SentAcknowledgements 0
scalar RSUExampleScenario.node[123].nic.mac1609_4 RetriesExceeded 0
scalar RSUExampleScenario.node[123].nic.mac1609_4 SNIRLostPackets 246
scalar RSUExampleScenario.node[123].nic.mac1609_4 RXTXLostPackets 0
scalar RSUExampleScenario.node[123].nic.mac1609_4 TotalLostPackets 246
scalar RSUExampleScenario.node[123].nic.mac1609_4 DroppedPacketsInMac 0
scalar RSUExampleScenario.node[123].nic.mac1609_4 TooLittleTime 0
scalar RSUExampleScenario.node[123].nic.mac1609_4 TimesIntoBackoff 27
scalar RSUExampleScenario.node[123].nic.mac1609_4 SlotsBackoff 47
scalar RSUExampleScenario.node[123].nic.mac1609_4 NumInternalContention 0
scalar RSUExampleScenario.node[123].nic.mac1609_4 totalBusyTime 0.302587
scalar RSUExampleScenario.node[123].nic.mac1609_4 retriesExceeded:count 0
attr source org_car2x_veins_modules_mac_sigRetriesExceeded
scalar RSUExampleScenario.node[123].nic.mac1609_4 sentAcks:count 0
attr source org_car2x_veins_modules_mac_sigSentAck
scalar RSUExampleScenario.node[123].nic.mac1609_4 sentPackets:count 27
attr source org_car2x_veins_modules_mac_sigSentPacket
scalar RSUExampleScenario.node[123].nic.mac1609_4 collisions:count 0
attr source org_car2x_veins_modules_mac_sigCollision
scalar RSUExampleScenario.node[123].nic.mac1609_4 channelBusy:timeavg 0.11206925925926
attr source org_car2x_veins_modules_mac_sigChannelBusy
scalar RSUExampleScenario.node[123].veinsmobility startTime 117.3
scalar RSUExampleScenario.node[123].veinsmobility totalTime 2.7
scalar RSUExampleScenario.node[123].veinsmobility stopTime 120
scalar RSUExampleScenario.node[123].veinsmobility minSpeed 1.508686837846
scalar RSUExampleScenario.node[123].veinsmobility maxSpeed 4.8406830788086
scalar RSUExampleScenario.node[123].veinsmobility totalDistance 12.00529156022
scalar RSUExampleScenario.node[123].veinsmobility totalCO2Emission 5.7992066581992
scalar RSUExampleScenario.node[124].appl generatedWSMs 0
scalar RSUExampleScenario.node[124].appl receivedWSMs 1
scalar RSUExampleScenario.node[124].appl generatedBSMs 26
scalar RSUExampleScenario.node[124].appl receivedBSMs 2571
scalar RSUExampleScenario.node[124].appl generatedWSAs 0
scalar RSUExampleScenario.node[124].appl receivedWSAs 0
scalar RSUExampleScenario.node[124].nic.phy80211p busyTime 0.11244923076923
scalar RSUExampleScenario.node[124].nic.mac1609_4 ReceivedUnicastPackets 0
scalar RSUExampleScenario.node[124].nic.mac1609_4 ReceivedBroadcasts 2572
scalar RSUExampleScenario.node[124].nic.mac1609_4 SentPackets 26
scalar RSUExampleScenario.node[124].nic.mac1609_4 SentAcknowledgements 0
scalar RSUExampleScenario.node[124].nic.mac1609_4 RetriesExceeded 0
scalar RSUExampleScenario.node[124].nic.mac1609_4 SNIRLostPackets 238
scalar RSUExampleScenario.node[124].nic.mac1609_4 RXTXLostPackets 0
scalar RSUExampleScenario.node[124].nic.mac1609_4 TotalLostPackets 238
scalar RSUExampleScenario.node[124].nic.mac1609_4 DroppedPacketsInMac 0
scalar RSUExampleScenario.node[124].nic.mac1609_4 TooLittleTime 0
scalar RSUExampleScenario.node[124].nic.mac1609_4 TimesIntoBackoff 26
scalar RSUExampleScenario.node[124].nic.mac1609_4 SlotsBackoff 34
scalar RSUExampleScenario.node[124].nic.mac1609_4 NumInternalContention 0
scalar RSUExampleScenario.node[124].nic.mac1609_4 totalBusyTime 0.291354
scalar RSUExampleScenario.node[124].nic.mac1609_4 retriesExceeded:count 0
attr source org_car2x_veins_modules_mac_sigRetriesExceeded
scalar RSUExampleScenario.node[124].nic.mac1609_4 sentAcks:count 0
attr source org_car2x_veins_modules_mac_sigSentAck
scalar RSUExampleScenario.node[124].nic.mac1609_4 sentPackets:count 26
attr source org_car2x_veins_modules_mac_sigSentPacket
scalar RSUExampleScenario.node[124].nic.mac1609_4 collisions:count 0
attr source org_car2x_veins_modules_mac_sigCollision
scalar RSUExampleScenario.node[124].nic.mac1609_4 channelBusy:timeavg 0.11205923076923
attr source org_car2x_veins_modules_mac_sigChannelBusy
scalar RSUExampleScenario.node[124].veinsmobility startTime 117.4
scalar RSUExampleScenario.node[124].veinsmobility totalTime 2.6
scalar RSUExampleScenario.node[124].veinsmobility stopTime 120
scalar RSUExampleScenario.node[124].veinsmobility minSpeed 1.7902643363252
scalar RSUExampleScenario.node[124].veinsmobility maxSpeed 3.306324149899
scalar RSUExampleScenario.node[124].veinsmobility totalDistance 7.1803785587058
scalar RSUExampleScenario.node[124].veinsmobility totalCO2Emission 4.2258010599225
scalar RSUExampleScenario.node[125].appl generatedWSMs 0
scalar RSUExampleScenario.node[125].appl receivedWSMs 0
scalar RSUExampleScenario.node[125].appl generatedBSMs 0
scalar RSUExampleScenario.node[125].appl receivedBSMs 0
scalar RSUExampleScenario.node[125].appl generatedWSAs 0
scalar RSUExampleScenario.node[125].appl receivedWSAs 0
scalar RSUExampleScenario.node[125].nic.phy80211p busyTime -nan
scalar RSUExampleScenario.node[125].nic.mac1609_4 ReceivedUnicastPackets 0
scalar RSUExampleScenario.node[125].nic.mac1609_4 ReceivedBroadcasts 0
scalar RSUExampleScenario.node[125].nic.mac1609_4 SentPackets 0
scalar RSUExampleScenario.node[125].nic.mac1609_4 SentAcknowledgements 0
scalar RSUExampleScenario.node[125].nic.mac1609_4 RetriesExceeded 0
scalar RSUExampleScenario.node[125].nic.mac1609_4 SNIRLostPackets 0
scalar RSUExampleScenario.node[125].nic.mac1609_4 RXTXLostPackets 0
scalar RSUExampleScenario.node[125].nic.mac1609_4 TotalLostPackets 0
scalar RSUExampleScenario.node[125].nic.mac1609_4 DroppedPacketsInMac 0
scalar RSUExampleScenario.node[125].nic.mac1609_4 TooLittleTime 0
scalar RSUExampleScenario.node[125].nic.mac1609_4 TimesIntoBackoff 0
scalar RSUExampleScenario.node[125].nic.mac1609_4 SlotsBackoff 0
scalar RSUExampleScenario.node[125].nic.mac1609_4 NumInternalContention 0
scalar RSUExampleScenario.node[125].nic.mac1609_4 totalBusyTime 0
scalar RSUExampleScenario.node[125].nic.mac1609_4 retriesExceeded:count 0
attr source org_car2x_veins_modules_mac_sigRetriesExceeded
scalar RSUExampleScenario.node[125].nic.mac1609_4 sentAcks:count 0
attr source org_car2x_veins_modules_mac_sigSentAck
scalar RSUExampleScenario.node[125].nic.mac1609_4 sentPackets:count 0
attr source org_car2x_veins_modules_mac_sigSentPacket
scalar RSUExampleScenario.node[125].nic.mac1609_4 collisions:count 0
attr source org_car2x_veins_modules_mac_sigCollision
scalar RSUExampleScenario.node[125].nic.mac1609_4 channelBusy:timeavg -nan
attr source org_car2x_veins_modules_mac_sigChannelBusy
scalar RSUExampleScenario.node[125].veinsmobility startTime 120
scalar RSUExampleScenario.node[125].veinsmobility totalTime 0
scalar RSUExampleScenario.node[125].veinsmobility stopTime 120
scalar RSUExampleScenario.node[125].veinsmobility totalDistance 0
scalar RSUExampleScenario.node[125].veinsmobility totalCO2Emission 0

