version 2
run WithBeaconing-0-20251015-15:47:06-4876
attr configname WithBeaconing
attr datetime 20251015-15:47:06
attr experiment WithBeaconing
attr inifile omnetpp.ini
attr iterationvars ""
attr iterationvarsf ""
attr measurement ""
attr network RSUExampleScenario
attr processid 4876
attr repetition 0
attr replication #0
attr resultdir results
attr runnumber 0
attr seedset 210041226
param *.node[*].appl.sendBeacons true
param *.playgroundSizeX 1700m
param *.playgroundSizeY 1700m
param *.playgroundSizeZ 50m
param *.annotations.draw true
param *.manager.updateInterval 0.1s
param *.manager.host "\"localhost\""
param *.manager.port 9999
param *.manager.autoShutdown true
param *.manager.launchConfig "xmldoc(\"simulation_junction.launchd.xml\")"
param *.connectionManager.sendDirect true
param *.connectionManager.maxInterfDist 2600m
param *.connectionManager.drawMaxIntfDist false
param *.**.nic.mac1609_4.useServiceChannel false
param *.**.nic.mac1609_4.txPower 20mW
param *.**.nic.mac1609_4.bitrate 6Mbps
param *.**.nic.phy80211p.minPowerLevel -110dBm
param *.**.nic.phy80211p.useNoiseFloor true
param *.**.nic.phy80211p.noiseFloor -98dBm
param *.**.nic.phy80211p.decider "xmldoc(\"config.xml\")"
param *.**.nic.phy80211p.analogueModels "xmldoc(\"config.xml\")"
param *.**.nic.phy80211p.usePropagationDelay true
param *.**.nic.phy80211p.antenna "xmldoc(\"antenna.xml\", \"/root/Antenna[@id='monopole']\")"
param *.node[*].nic.phy80211p.antennaOffsetY "0 m"
param *.node[*].nic.phy80211p.antennaOffsetZ "1.895 m"
param *.node[*].applType "\"TraCIDemo11p\""
param *.node[*].appl.headerLength "80 bit"
param *.node[*].appl.sendBeacons false
param *.node[*].appl.dataOnSch false
param *.node[*].appl.beaconInterval 0.1s
param **.node[*].appl.dataUserPriority 5
param **.node[*].appl.beaconUserPriority 7
param *.node[*].veinsmobility.x 0
param *.node[*].veinsmobility.y 0
param *.node[*].veinsmobility.z 0
param *.node[*].veinsmobility.setHostSpeed false

scalar RSUExampleScenario.node[0].appl generatedWSMs 1
scalar RSUExampleScenario.node[0].appl receivedWSMs 22
scalar RSUExampleScenario.node[0].appl generatedBSMs 944
scalar RSUExampleScenario.node[0].appl receivedBSMs 23756
scalar RSUExampleScenario.node[0].appl generatedWSAs 0
scalar RSUExampleScenario.node[0].appl receivedWSAs 0
scalar RSUExampleScenario.node[0].nic.phy80211p busyTime 0.028698135593222
scalar RSUExampleScenario.node[0].nic.mac1609_4 ReceivedUnicastPackets 0
scalar RSUExampleScenario.node[0].nic.mac1609_4 ReceivedBroadcasts 23778
scalar RSUExampleScenario.node[0].nic.mac1609_4 SentPackets 945
scalar RSUExampleScenario.node[0].nic.mac1609_4 SentAcknowledgements 0
scalar RSUExampleScenario.node[0].nic.mac1609_4 RetriesExceeded 0
scalar RSUExampleScenario.node[0].nic.mac1609_4 SNIRLostPackets 2243
scalar RSUExampleScenario.node[0].nic.mac1609_4 RXTXLostPackets 0
scalar RSUExampleScenario.node[0].nic.mac1609_4 TotalLostPackets 2243
scalar RSUExampleScenario.node[0].nic.mac1609_4 DroppedPacketsInMac 0
scalar RSUExampleScenario.node[0].nic.mac1609_4 TooLittleTime 0
scalar RSUExampleScenario.node[0].nic.mac1609_4 TimesIntoBackoff 945
scalar RSUExampleScenario.node[0].nic.mac1609_4 SlotsBackoff 1402
scalar RSUExampleScenario.node[0].nic.mac1609_4 NumInternalContention 0
scalar RSUExampleScenario.node[0].nic.mac1609_4 totalBusyTime 2.795249
scalar RSUExampleScenario.node[0].nic.mac1609_4 retriesExceeded:count 0
attr source org_car2x_veins_modules_mac_sigRetriesExceeded
scalar RSUExampleScenario.node[0].nic.mac1609_4 sentAcks:count 0
attr source org_car2x_veins_modules_mac_sigSentAck
scalar RSUExampleScenario.node[0].nic.mac1609_4 sentPackets:count 945
attr source org_car2x_veins_modules_mac_sigSentPacket
scalar RSUExampleScenario.node[0].nic.mac1609_4 collisions:count 0
attr source org_car2x_veins_modules_mac_sigCollision
scalar RSUExampleScenario.node[0].nic.mac1609_4 channelBusy:timeavg 0.029611411536505
attr source org_car2x_veins_modules_mac_sigChannelBusy
scalar RSUExampleScenario.node[0].veinsmobility startTime 0.1
scalar RSUExampleScenario.node[0].veinsmobility totalTime 94.3
scalar RSUExampleScenario.node[0].veinsmobility stopTime 94.5
scalar RSUExampleScenario.node[0].veinsmobility minSpeed 0
scalar RSUExampleScenario.node[0].veinsmobility maxSpeed 11.163062379957
scalar RSUExampleScenario.node[0].veinsmobility totalDistance 746.25114476983
scalar RSUExampleScenario.node[0].veinsmobility totalCO2Emission 208.35834764818
scalar RSUExampleScenario.node[1].appl generatedWSMs 1
scalar RSUExampleScenario.node[1].appl receivedWSMs 22
scalar RSUExampleScenario.node[1].appl generatedBSMs 969
scalar RSUExampleScenario.node[1].appl receivedBSMs 24797
scalar RSUExampleScenario.node[1].appl generatedWSAs 0
scalar RSUExampleScenario.node[1].appl receivedWSAs 0
scalar RSUExampleScenario.node[1].nic.phy80211p busyTime 0.02942596491228
scalar RSUExampleScenario.node[1].nic.mac1609_4 ReceivedUnicastPackets 0
scalar RSUExampleScenario.node[1].nic.mac1609_4 ReceivedBroadcasts 24819
scalar RSUExampleScenario.node[1].nic.mac1609_4 SentPackets 970
scalar RSUExampleScenario.node[1].nic.mac1609_4 SentAcknowledgements 0
scalar RSUExampleScenario.node[1].nic.mac1609_4 RetriesExceeded 0
scalar RSUExampleScenario.node[1].nic.mac1609_4 SNIRLostPackets 2570
scalar RSUExampleScenario.node[1].nic.mac1609_4 RXTXLostPackets 0
scalar RSUExampleScenario.node[1].nic.mac1609_4 TotalLostPackets 2570
scalar RSUExampleScenario.node[1].nic.mac1609_4 DroppedPacketsInMac 0
scalar RSUExampleScenario.node[1].nic.mac1609_4 TooLittleTime 0
scalar RSUExampleScenario.node[1].nic.mac1609_4 TimesIntoBackoff 970
scalar RSUExampleScenario.node[1].nic.mac1609_4 SlotsBackoff 1444
scalar RSUExampleScenario.node[1].nic.mac1609_4 NumInternalContention 0
scalar RSUExampleScenario.node[1].nic.mac1609_4 totalBusyTime 2.938274
scalar RSUExampleScenario.node[1].nic.mac1609_4 retriesExceeded:count 0
attr source org_car2x_veins_modules_mac_sigRetriesExceeded
scalar RSUExampleScenario.node[1].nic.mac1609_4 sentAcks:count 0
attr source org_car2x_veins_modules_mac_sigSentAck
scalar RSUExampleScenario.node[1].nic.mac1609_4 sentPackets:count 970
attr source org_car2x_veins_modules_mac_sigSentPacket
scalar RSUExampleScenario.node[1].nic.mac1609_4 collisions:count 0
attr source org_car2x_veins_modules_mac_sigCollision
scalar RSUExampleScenario.node[1].nic.mac1609_4 channelBusy:timeavg 0.030323536007202
attr source org_car2x_veins_modules_mac_sigChannelBusy
scalar RSUExampleScenario.node[1].veinsmobility startTime 0.1
scalar RSUExampleScenario.node[1].veinsmobility totalTime 96.8
scalar RSUExampleScenario.node[1].veinsmobility stopTime 97
scalar RSUExampleScenario.node[1].veinsmobility minSpeed 0
scalar RSUExampleScenario.node[1].veinsmobility maxSpeed 10.483688207878
scalar RSUExampleScenario.node[1].veinsmobility totalDistance 749.23227647324
scalar RSUExampleScenario.node[1].veinsmobility totalCO2Emission 205.10538577134
scalar RSUExampleScenario.node[5].appl generatedWSMs 1
scalar RSUExampleScenario.node[5].appl receivedWSMs 22
scalar RSUExampleScenario.node[5].appl generatedBSMs 905
scalar RSUExampleScenario.node[5].appl receivedBSMs 25399
scalar RSUExampleScenario.node[5].appl generatedWSAs 0
scalar RSUExampleScenario.node[5].appl receivedWSAs 0
scalar RSUExampleScenario.node[5].nic.phy80211p busyTime 0.032299845303866
scalar RSUExampleScenario.node[5].nic.mac1609_4 ReceivedUnicastPackets 0
scalar RSUExampleScenario.node[5].nic.mac1609_4 ReceivedBroadcasts 25421
scalar RSUExampleScenario.node[5].nic.mac1609_4 SentPackets 906
scalar RSUExampleScenario.node[5].nic.mac1609_4 SentAcknowledgements 0
scalar RSUExampleScenario.node[5].nic.mac1609_4 RetriesExceeded 0
scalar RSUExampleScenario.node[5].nic.mac1609_4 SNIRLostPackets 2658
scalar RSUExampleScenario.node[5].nic.mac1609_4 RXTXLostPackets 0
scalar RSUExampleScenario.node[5].nic.mac1609_4 TotalLostPackets 2658
scalar RSUExampleScenario.node[5].nic.mac1609_4 DroppedPacketsInMac 0
scalar RSUExampleScenario.node[5].nic.mac1609_4 TooLittleTime 0
scalar RSUExampleScenario.node[5].nic.mac1609_4 TimesIntoBackoff 906
scalar RSUExampleScenario.node[5].nic.mac1609_4 SlotsBackoff 1357
scalar RSUExampleScenario.node[5].nic.mac1609_4 NumInternalContention 0
scalar RSUExampleScenario.node[5].nic.mac1609_4 totalBusyTime 3.002066
scalar RSUExampleScenario.node[5].nic.mac1609_4 retriesExceeded:count 0
attr source org_car2x_veins_modules_mac_sigRetriesExceeded
scalar RSUExampleScenario.node[5].nic.mac1609_4 sentAcks:count 0
attr source org_car2x_veins_modules_mac_sigSentAck
scalar RSUExampleScenario.node[5].nic.mac1609_4 sentPackets:count 906
attr source org_car2x_veins_modules_mac_sigSentPacket
scalar RSUExampleScenario.node[5].nic.mac1609_4 collisions:count 0
attr source org_car2x_veins_modules_mac_sigCollision
scalar RSUExampleScenario.node[5].nic.mac1609_4 channelBusy:timeavg 0.033172772501346
attr source org_car2x_veins_modules_mac_sigChannelBusy
scalar RSUExampleScenario.node[5].veinsmobility startTime 8.1
scalar RSUExampleScenario.node[5].veinsmobility totalTime 90.4
scalar RSUExampleScenario.node[5].veinsmobility stopTime 98.6
scalar RSUExampleScenario.node[5].veinsmobility minSpeed 0
scalar RSUExampleScenario.node[5].veinsmobility maxSpeed 11.557749651842
scalar RSUExampleScenario.node[5].veinsmobility totalDistance 748.5118978885
scalar RSUExampleScenario.node[5].veinsmobility totalCO2Emission 212.75294336573
scalar RSUExampleScenario.node[2].appl generatedWSMs 1
scalar RSUExampleScenario.node[2].appl receivedWSMs 23
scalar RSUExampleScenario.node[2].appl generatedBSMs 970
scalar RSUExampleScenario.node[2].appl receivedBSMs 26332
scalar RSUExampleScenario.node[2].appl generatedWSAs 0
scalar RSUExampleScenario.node[2].appl receivedWSAs 0
scalar RSUExampleScenario.node[2].nic.phy80211p busyTime 0.031188536082472
scalar RSUExampleScenario.node[2].nic.mac1609_4 ReceivedUnicastPackets 0
scalar RSUExampleScenario.node[2].nic.mac1609_4 ReceivedBroadcasts 26355
scalar RSUExampleScenario.node[2].nic.mac1609_4 SentPackets 971
scalar RSUExampleScenario.node[2].nic.mac1609_4 SentAcknowledgements 0
scalar RSUExampleScenario.node[2].nic.mac1609_4 RetriesExceeded 0
scalar RSUExampleScenario.node[2].nic.mac1609_4 SNIRLostPackets 2705
scalar RSUExampleScenario.node[2].nic.mac1609_4 RXTXLostPackets 0
scalar RSUExampleScenario.node[2].nic.mac1609_4 TotalLostPackets 2705
scalar RSUExampleScenario.node[2].nic.mac1609_4 DroppedPacketsInMac 0
scalar RSUExampleScenario.node[2].nic.mac1609_4 TooLittleTime 0
scalar RSUExampleScenario.node[2].nic.mac1609_4 TimesIntoBackoff 971
scalar RSUExampleScenario.node[2].nic.mac1609_4 SlotsBackoff 1460
scalar RSUExampleScenario.node[2].nic.mac1609_4 NumInternalContention 0
scalar RSUExampleScenario.node[2].nic.mac1609_4 totalBusyTime 3.109899
scalar RSUExampleScenario.node[2].nic.mac1609_4 retriesExceeded:count 0
attr source org_car2x_veins_modules_mac_sigRetriesExceeded
scalar RSUExampleScenario.node[2].nic.mac1609_4 sentAcks:count 0
attr source org_car2x_veins_modules_mac_sigSentAck
scalar RSUExampleScenario.node[2].nic.mac1609_4 sentPackets:count 971
attr source org_car2x_veins_modules_mac_sigSentPacket
scalar RSUExampleScenario.node[2].nic.mac1609_4 collisions:count 0
attr source org_car2x_veins_modules_mac_sigCollision
scalar RSUExampleScenario.node[2].nic.mac1609_4 channelBusy:timeavg 0.032061562100739
attr source org_car2x_veins_modules_mac_sigChannelBusy
scalar RSUExampleScenario.node[2].veinsmobility startTime 3.1
scalar RSUExampleScenario.node[2].veinsmobility totalTime 96.9
scalar RSUExampleScenario.node[2].veinsmobility stopTime 100.1
scalar RSUExampleScenario.node[2].veinsmobility minSpeed 0
scalar RSUExampleScenario.node[2].veinsmobility maxSpeed 10.299519296295
scalar RSUExampleScenario.node[2].veinsmobility totalDistance 747.02394580623
scalar RSUExampleScenario.node[2].veinsmobility totalCO2Emission 206.00069646596
scalar RSUExampleScenario.node[10].appl generatedWSMs 1
scalar RSUExampleScenario.node[10].appl receivedWSMs 23
scalar RSUExampleScenario.node[10].appl generatedBSMs 842
scalar RSUExampleScenario.node[10].appl receivedBSMs 25707
scalar RSUExampleScenario.node[10].appl generatedWSAs 0
scalar RSUExampleScenario.node[10].appl receivedWSAs 0
scalar RSUExampleScenario.node[10].nic.phy80211p busyTime 0.035176342042754
scalar RSUExampleScenario.node[10].nic.mac1609_4 ReceivedUnicastPackets 0
scalar RSUExampleScenario.node[10].nic.mac1609_4 ReceivedBroadcasts 25730
scalar RSUExampleScenario.node[10].nic.mac1609_4 SentPackets 843
scalar RSUExampleScenario.node[10].nic.mac1609_4 SentAcknowledgements 0
scalar RSUExampleScenario.node[10].nic.mac1609_4 RetriesExceeded 0
scalar RSUExampleScenario.node[10].nic.mac1609_4 SNIRLostPackets 2720
scalar RSUExampleScenario.node[10].nic.mac1609_4 RXTXLostPackets 0
scalar RSUExampleScenario.node[10].nic.mac1609_4 TotalLostPackets 2720
scalar RSUExampleScenario.node[10].nic.mac1609_4 DroppedPacketsInMac 0
scalar RSUExampleScenario.node[10].nic.mac1609_4 TooLittleTime 0
scalar RSUExampleScenario.node[10].nic.mac1609_4 TimesIntoBackoff 843
scalar RSUExampleScenario.node[10].nic.mac1609_4 SlotsBackoff 1197
scalar RSUExampleScenario.node[10].nic.mac1609_4 NumInternalContention 0
scalar RSUExampleScenario.node[10].nic.mac1609_4 totalBusyTime 3.032915
scalar RSUExampleScenario.node[10].nic.mac1609_4 retriesExceeded:count 0
attr source org_car2x_veins_modules_mac_sigRetriesExceeded
scalar RSUExampleScenario.node[10].nic.mac1609_4 sentAcks:count 0
attr source org_car2x_veins_modules_mac_sigSentAck
scalar RSUExampleScenario.node[10].nic.mac1609_4 sentPackets:count 843
attr source org_car2x_veins_modules_mac_sigSentPacket
scalar RSUExampleScenario.node[10].nic.mac1609_4 collisions:count 0
attr source org_car2x_veins_modules_mac_sigCollision
scalar RSUExampleScenario.node[10].nic.mac1609_4 channelBusy:timeavg 0.03602113053957
attr source org_car2x_veins_modules_mac_sigChannelBusy
scalar RSUExampleScenario.node[10].veinsmobility startTime 16.1
scalar RSUExampleScenario.node[10].veinsmobility totalTime 84.1
scalar RSUExampleScenario.node[10].veinsmobility stopTime 100.3
scalar RSUExampleScenario.node[10].veinsmobility minSpeed 0.0016468777719541
scalar RSUExampleScenario.node[10].veinsmobility maxSpeed 11.254162943981
scalar RSUExampleScenario.node[10].veinsmobility totalDistance 748.65424629308
scalar RSUExampleScenario.node[10].veinsmobility totalCO2Emission 208.46068625725
scalar RSUExampleScenario.node[15].appl generatedWSMs 1
scalar RSUExampleScenario.node[15].appl receivedWSMs 39
scalar RSUExampleScenario.node[15].appl generatedBSMs 789
scalar RSUExampleScenario.node[15].appl receivedBSMs 25965
scalar RSUExampleScenario.node[15].appl generatedWSAs 0
scalar RSUExampleScenario.node[15].appl receivedWSAs 0
scalar RSUExampleScenario.node[15].nic.phy80211p busyTime 0.038350012674269
scalar RSUExampleScenario.node[15].nic.mac1609_4 ReceivedUnicastPackets 0
scalar RSUExampleScenario.node[15].nic.mac1609_4 ReceivedBroadcasts 26004
scalar RSUExampleScenario.node[15].nic.mac1609_4 SentPackets 790
scalar RSUExampleScenario.node[15].nic.mac1609_4 SentAcknowledgements 0
scalar RSUExampleScenario.node[15].nic.mac1609_4 RetriesExceeded 0
scalar RSUExampleScenario.node[15].nic.mac1609_4 SNIRLostPackets 3018
scalar RSUExampleScenario.node[15].nic.mac1609_4 RXTXLostPackets 0
scalar RSUExampleScenario.node[15].nic.mac1609_4 TotalLostPackets 3018
scalar RSUExampleScenario.node[15].nic.mac1609_4 DroppedPacketsInMac 0
scalar RSUExampleScenario.node[15].nic.mac1609_4 TooLittleTime 0
scalar RSUExampleScenario.node[15].nic.mac1609_4 TimesIntoBackoff 790
scalar RSUExampleScenario.node[15].nic.mac1609_4 SlotsBackoff 1161
scalar RSUExampleScenario.node[15].nic.mac1609_4 NumInternalContention 0
scalar RSUExampleScenario.node[15].nic.mac1609_4 totalBusyTime 3.088822
scalar RSUExampleScenario.node[15].nic.mac1609_4 retriesExceeded:count 0
attr source org_car2x_veins_modules_mac_sigRetriesExceeded
scalar RSUExampleScenario.node[15].nic.mac1609_4 sentAcks:count 0
attr source org_car2x_veins_modules_mac_sigSentAck
scalar RSUExampleScenario.node[15].nic.mac1609_4 sentPackets:count 790
attr source org_car2x_veins_modules_mac_sigSentPacket
scalar RSUExampleScenario.node[15].nic.mac1609_4 collisions:count 0
attr source org_car2x_veins_modules_mac_sigCollision
scalar RSUExampleScenario.node[15].nic.mac1609_4 channelBusy:timeavg 0.039149392846638
attr source org_car2x_veins_modules_mac_sigChannelBusy
scalar RSUExampleScenario.node[15].veinsmobility startTime 24.1
scalar RSUExampleScenario.node[15].veinsmobility totalTime 78.8
scalar RSUExampleScenario.node[15].veinsmobility stopTime 103
scalar RSUExampleScenario.node[15].veinsmobility minSpeed 1.968591855926
scalar RSUExampleScenario.node[15].veinsmobility maxSpeed 10.409024020119
scalar RSUExampleScenario.node[15].veinsmobility totalDistance 749.44471033584
scalar RSUExampleScenario.node[15].veinsmobility totalCO2Emission 195.05387395128
scalar RSUExampleScenario.node[4].appl generatedWSMs 1
scalar RSUExampleScenario.node[4].appl receivedWSMs 46
scalar RSUExampleScenario.node[4].appl generatedBSMs 1039
scalar RSUExampleScenario.node[4].appl receivedBSMs 31022
scalar RSUExampleScenario.node[4].appl generatedWSAs 0
scalar RSUExampleScenario.node[4].appl receivedWSAs 0
scalar RSUExampleScenario.node[4].nic.phy80211p busyTime 0.034632608277181
scalar RSUExampleScenario.node[4].nic.mac1609_4 ReceivedUnicastPackets 0
scalar RSUExampleScenario.node[4].nic.mac1609_4 ReceivedBroadcasts 31068
scalar RSUExampleScenario.node[4].nic.mac1609_4 SentPackets 1040
scalar RSUExampleScenario.node[4].nic.mac1609_4 SentAcknowledgements 0
scalar RSUExampleScenario.node[4].nic.mac1609_4 RetriesExceeded 0
scalar RSUExampleScenario.node[4].nic.mac1609_4 SNIRLostPackets 3454
scalar RSUExampleScenario.node[4].nic.mac1609_4 RXTXLostPackets 0
scalar RSUExampleScenario.node[4].nic.mac1609_4 TotalLostPackets 3454
scalar RSUExampleScenario.node[4].nic.mac1609_4 DroppedPacketsInMac 0
scalar RSUExampleScenario.node[4].nic.mac1609_4 TooLittleTime 0
scalar RSUExampleScenario.node[4].nic.mac1609_4 TimesIntoBackoff 1040
scalar RSUExampleScenario.node[4].nic.mac1609_4 SlotsBackoff 1535
scalar RSUExampleScenario.node[4].nic.mac1609_4 NumInternalContention 0
scalar RSUExampleScenario.node[4].nic.mac1609_4 totalBusyTime 3.682592
scalar RSUExampleScenario.node[4].nic.mac1609_4 retriesExceeded:count 0
attr source org_car2x_veins_modules_mac_sigRetriesExceeded
scalar RSUExampleScenario.node[4].nic.mac1609_4 sentAcks:count 0
attr source org_car2x_veins_modules_mac_sigSentAck
scalar RSUExampleScenario.node[4].nic.mac1609_4 sentPackets:count 1040
attr source org_car2x_veins_modules_mac_sigSentPacket
scalar RSUExampleScenario.node[4].nic.mac1609_4 collisions:count 0
attr source org_car2x_veins_modules_mac_sigCollision
scalar RSUExampleScenario.node[4].nic.mac1609_4 channelBusy:timeavg 0.035444270446613
attr source org_car2x_veins_modules_mac_sigChannelBusy
scalar RSUExampleScenario.node[4].veinsmobility startTime 6.1
scalar RSUExampleScenario.node[4].veinsmobility totalTime 103.8
scalar RSUExampleScenario.node[4].veinsmobility stopTime 110
scalar RSUExampleScenario.node[4].veinsmobility minSpeed 1.1187285692328e-05
scalar RSUExampleScenario.node[4].veinsmobility maxSpeed 8.8306357456658
scalar RSUExampleScenario.node[4].veinsmobility totalDistance 746.73048833868
scalar RSUExampleScenario.node[4].veinsmobility totalCO2Emission 213.04233383757
scalar RSUExampleScenario.node[6].appl generatedWSMs 1
scalar RSUExampleScenario.node[6].appl receivedWSMs 49
scalar RSUExampleScenario.node[6].appl generatedBSMs 1027
scalar RSUExampleScenario.node[6].appl receivedBSMs 31834
scalar RSUExampleScenario.node[6].appl generatedWSAs 0
scalar RSUExampleScenario.node[6].appl receivedWSAs 0
scalar RSUExampleScenario.node[6].nic.phy80211p busyTime 0.035956222005833
scalar RSUExampleScenario.node[6].nic.mac1609_4 ReceivedUnicastPackets 0
scalar RSUExampleScenario.node[6].nic.mac1609_4 ReceivedBroadcasts 31883
scalar RSUExampleScenario.node[6].nic.mac1609_4 SentPackets 1028
scalar RSUExampleScenario.node[6].nic.mac1609_4 SentAcknowledgements 0
scalar RSUExampleScenario.node[6].nic.mac1609_4 RetriesExceeded 0
scalar RSUExampleScenario.node[6].nic.mac1609_4 SNIRLostPackets 3544
scalar RSUExampleScenario.node[6].nic.mac1609_4 RXTXLostPackets 0
scalar RSUExampleScenario.node[6].nic.mac1609_4 TotalLostPackets 3544
scalar RSUExampleScenario.node[6].nic.mac1609_4 DroppedPacketsInMac 0
scalar RSUExampleScenario.node[6].nic.mac1609_4 TooLittleTime 0
scalar RSUExampleScenario.node[6].nic.mac1609_4 TimesIntoBackoff 1201
scalar RSUExampleScenario.node[6].nic.mac1609_4 SlotsBackoff 1836
scalar RSUExampleScenario.node[6].nic.mac1609_4 NumInternalContention 0
scalar RSUExampleScenario.node[6].nic.mac1609_4 totalBusyTime 3.77446
scalar RSUExampleScenario.node[6].nic.mac1609_4 retriesExceeded:count 0
attr source org_car2x_veins_modules_mac_sigRetriesExceeded
scalar RSUExampleScenario.node[6].nic.mac1609_4 sentAcks:count 0
attr source org_car2x_veins_modules_mac_sigSentAck
scalar RSUExampleScenario.node[6].nic.mac1609_4 sentPackets:count 1028
attr source org_car2x_veins_modules_mac_sigSentPacket
scalar RSUExampleScenario.node[6].nic.mac1609_4 collisions:count 0
attr source org_car2x_veins_modules_mac_sigCollision
scalar RSUExampleScenario.node[6].nic.mac1609_4 channelBusy:timeavg 0.036753015092424
attr source org_car2x_veins_modules_mac_sigChannelBusy
scalar RSUExampleScenario.node[6].veinsmobility startTime 9.1
scalar RSUExampleScenario.node[6].veinsmobility totalTime 102.6
scalar RSUExampleScenario.node[6].veinsmobility stopTime 111.8
scalar RSUExampleScenario.node[6].veinsmobility minSpeed 0.00017285388657853
scalar RSUExampleScenario.node[6].veinsmobility maxSpeed 9.4535785169551
scalar RSUExampleScenario.node[6].veinsmobility totalDistance 746.66148247445
scalar RSUExampleScenario.node[6].veinsmobility totalCO2Emission 216.22840953512
scalar RSUExampleScenario.node[12].appl generatedWSMs 1
scalar RSUExampleScenario.node[12].appl receivedWSMs 52
scalar RSUExampleScenario.node[12].appl generatedBSMs 920
scalar RSUExampleScenario.node[12].appl receivedBSMs 30610
scalar RSUExampleScenario.node[12].appl generatedWSAs 0
scalar RSUExampleScenario.node[12].appl receivedWSAs 0
scalar RSUExampleScenario.node[12].nic.phy80211p busyTime 0.039280086956512
scalar RSUExampleScenario.node[12].nic.mac1609_4 ReceivedUnicastPackets 0
scalar RSUExampleScenario.node[12].nic.mac1609_4 ReceivedBroadcasts 30662
scalar RSUExampleScenario.node[12].nic.mac1609_4 SentPackets 921
scalar RSUExampleScenario.node[12].nic.mac1609_4 SentAcknowledgements 0
scalar RSUExampleScenario.node[12].nic.mac1609_4 RetriesExceeded 0
scalar RSUExampleScenario.node[12].nic.mac1609_4 SNIRLostPackets 4006
scalar RSUExampleScenario.node[12].nic.mac1609_4 RXTXLostPackets 0
scalar RSUExampleScenario.node[12].nic.mac1609_4 TotalLostPackets 4006
scalar RSUExampleScenario.node[12].nic.mac1609_4 DroppedPacketsInMac 0
scalar RSUExampleScenario.node[12].nic.mac1609_4 TooLittleTime 0
scalar RSUExampleScenario.node[12].nic.mac1609_4 TimesIntoBackoff 921
scalar RSUExampleScenario.node[12].nic.mac1609_4 SlotsBackoff 1379
scalar RSUExampleScenario.node[12].nic.mac1609_4 NumInternalContention 0
scalar RSUExampleScenario.node[12].nic.mac1609_4 totalBusyTime 3.683977
scalar RSUExampleScenario.node[12].nic.mac1609_4 retriesExceeded:count 0
attr source org_car2x_veins_modules_mac_sigRetriesExceeded
scalar RSUExampleScenario.node[12].nic.mac1609_4 sentAcks:count 0
attr source org_car2x_veins_modules_mac_sigSentAck
scalar RSUExampleScenario.node[12].nic.mac1609_4 sentPackets:count 921
attr source org_car2x_veins_modules_mac_sigSentPacket
scalar RSUExampleScenario.node[12].nic.mac1609_4 collisions:count 0
attr source org_car2x_veins_modules_mac_sigCollision
scalar RSUExampleScenario.node[12].nic.mac1609_4 channelBusy:timeavg 0.040043988590468
attr source org_car2x_veins_modules_mac_sigChannelBusy
scalar RSUExampleScenario.node[12].veinsmobility startTime 20.1
scalar RSUExampleScenario.node[12].veinsmobility totalTime 91.9
scalar RSUExampleScenario.node[12].veinsmobility stopTime 112.1
scalar RSUExampleScenario.node[12].veinsmobility minSpeed 0.0074884300967738
scalar RSUExampleScenario.node[12].veinsmobility maxSpeed 9.3182018768908
scalar RSUExampleScenario.node[12].veinsmobility totalDistance 750.21269724254
scalar RSUExampleScenario.node[12].veinsmobility totalCO2Emission 199.46361378607
scalar RSUExampleScenario.node[8].appl generatedWSMs 1
scalar RSUExampleScenario.node[8].appl receivedWSMs 55
scalar RSUExampleScenario.node[8].appl generatedBSMs 1017
scalar RSUExampleScenario.node[8].appl receivedBSMs 32232
scalar RSUExampleScenario.node[8].appl generatedWSAs 0
scalar RSUExampleScenario.node[8].appl receivedWSAs 0
scalar RSUExampleScenario.node[8].nic.phy80211p busyTime 0.037291484759085
scalar RSUExampleScenario.node[8].nic.mac1609_4 ReceivedUnicastPackets 0
scalar RSUExampleScenario.node[8].nic.mac1609_4 ReceivedBroadcasts 32287
scalar RSUExampleScenario.node[8].nic.mac1609_4 SentPackets 1018
scalar RSUExampleScenario.node[8].nic.mac1609_4 SentAcknowledgements 0
scalar RSUExampleScenario.node[8].nic.mac1609_4 RetriesExceeded 0
scalar RSUExampleScenario.node[8].nic.mac1609_4 SNIRLostPackets 4100
scalar RSUExampleScenario.node[8].nic.mac1609_4 RXTXLostPackets 0
scalar RSUExampleScenario.node[8].nic.mac1609_4 TotalLostPackets 4100
scalar RSUExampleScenario.node[8].nic.mac1609_4 DroppedPacketsInMac 0
scalar RSUExampleScenario.node[8].nic.mac1609_4 TooLittleTime 0
scalar RSUExampleScenario.node[8].nic.mac1609_4 TimesIntoBackoff 1020
scalar RSUExampleScenario.node[8].nic.mac1609_4 SlotsBackoff 1465
scalar RSUExampleScenario.node[8].nic.mac1609_4 NumInternalContention 0
scalar RSUExampleScenario.node[8].nic.mac1609_4 totalBusyTime 3.87169
scalar RSUExampleScenario.node[8].nic.mac1609_4 retriesExceeded:count 0
attr source org_car2x_veins_modules_mac_sigRetriesExceeded
scalar RSUExampleScenario.node[8].nic.mac1609_4 sentAcks:count 0
attr source org_car2x_veins_modules_mac_sigSentAck
scalar RSUExampleScenario.node[8].nic.mac1609_4 sentPackets:count 1018
attr source org_car2x_veins_modules_mac_sigSentPacket
scalar RSUExampleScenario.node[8].nic.mac1609_4 collisions:count 0
attr source org_car2x_veins_modules_mac_sigCollision
scalar RSUExampleScenario.node[8].nic.mac1609_4 channelBusy:timeavg 0.03807035161462
attr source org_car2x_veins_modules_mac_sigChannelBusy
scalar RSUExampleScenario.node[8].veinsmobility startTime 12.1
scalar RSUExampleScenario.node[8].veinsmobility totalTime 101.6
scalar RSUExampleScenario.node[8].veinsmobility stopTime 113.8
scalar RSUExampleScenario.node[8].veinsmobility minSpeed 0
scalar RSUExampleScenario.node[8].veinsmobility maxSpeed 10.540941615947
scalar RSUExampleScenario.node[8].veinsmobility totalDistance 750.19094390186
scalar RSUExampleScenario.node[8].veinsmobility totalCO2Emission 217.29875742199
scalar RSUExampleScenario.node[19].appl generatedWSMs 1
scalar RSUExampleScenario.node[19].appl receivedWSMs 56
scalar RSUExampleScenario.node[19].appl generatedBSMs 852
scalar RSUExampleScenario.node[19].appl receivedBSMs 31438
scalar RSUExampleScenario.node[19].appl generatedWSAs 0
scalar RSUExampleScenario.node[19].appl receivedWSAs 0
scalar RSUExampleScenario.node[19].nic.phy80211p busyTime 0.04382497652581
scalar RSUExampleScenario.node[19].nic.mac1609_4 ReceivedUnicastPackets 0
scalar RSUExampleScenario.node[19].nic.mac1609_4 ReceivedBroadcasts 31494
scalar RSUExampleScenario.node[19].nic.mac1609_4 SentPackets 853
scalar RSUExampleScenario.node[19].nic.mac1609_4 SentAcknowledgements 0
scalar RSUExampleScenario.node[19].nic.mac1609_4 RetriesExceeded 0
scalar RSUExampleScenario.node[19].nic.mac1609_4 SNIRLostPackets 4329
scalar RSUExampleScenario.node[19].nic.mac1609_4 RXTXLostPackets 0
scalar RSUExampleScenario.node[19].nic.mac1609_4 TotalLostPackets 4329
scalar RSUExampleScenario.node[19].nic.mac1609_4 DroppedPacketsInMac 0
scalar RSUExampleScenario.node[19].nic.mac1609_4 TooLittleTime 0
scalar RSUExampleScenario.node[19].nic.mac1609_4 TimesIntoBackoff 853
scalar RSUExampleScenario.node[19].nic.mac1609_4 SlotsBackoff 1253
scalar RSUExampleScenario.node[19].nic.mac1609_4 NumInternalContention 0
scalar RSUExampleScenario.node[19].nic.mac1609_4 totalBusyTime 3.793733
scalar RSUExampleScenario.node[19].nic.mac1609_4 retriesExceeded:count 0
attr source org_car2x_veins_modules_mac_sigRetriesExceeded
scalar RSUExampleScenario.node[19].nic.mac1609_4 sentAcks:count 0
attr source org_car2x_veins_modules_mac_sigSentAck
scalar RSUExampleScenario.node[19].nic.mac1609_4 sentPackets:count 853
attr source org_car2x_veins_modules_mac_sigSentPacket
scalar RSUExampleScenario.node[19].nic.mac1609_4 collisions:count 0
attr source org_car2x_veins_modules_mac_sigCollision
scalar RSUExampleScenario.node[19].nic.mac1609_4 channelBusy:timeavg 0.044528281946537
attr source org_car2x_veins_modules_mac_sigChannelBusy
scalar RSUExampleScenario.node[19].veinsmobility startTime 32.1
scalar RSUExampleScenario.node[19].veinsmobility totalTime 85.1
scalar RSUExampleScenario.node[19].veinsmobility stopTime 117.3
scalar RSUExampleScenario.node[19].veinsmobility minSpeed 5.6338199920526
scalar RSUExampleScenario.node[19].veinsmobility maxSpeed 9.3852617442857
scalar RSUExampleScenario.node[19].veinsmobility totalDistance 748.89758112439
scalar RSUExampleScenario.node[19].veinsmobility totalCO2Emission 196.456761126
scalar RSUExampleScenario.node[22].appl generatedWSMs 1
scalar RSUExampleScenario.node[22].appl receivedWSMs 38
scalar RSUExampleScenario.node[22].appl generatedBSMs 830
scalar RSUExampleScenario.node[22].appl receivedBSMs 31586
scalar RSUExampleScenario.node[22].appl generatedWSAs 0
scalar RSUExampleScenario.node[22].appl receivedWSAs 0
scalar RSUExampleScenario.node[22].nic.phy80211p busyTime 0.045248963855409
scalar RSUExampleScenario.node[22].nic.mac1609_4 ReceivedUnicastPackets 0
scalar RSUExampleScenario.node[22].nic.mac1609_4 ReceivedBroadcasts 31624
scalar RSUExampleScenario.node[22].nic.mac1609_4 SentPackets 831
scalar RSUExampleScenario.node[22].nic.mac1609_4 SentAcknowledgements 0
scalar RSUExampleScenario.node[22].nic.mac1609_4 RetriesExceeded 0
scalar RSUExampleScenario.node[22].nic.mac1609_4 SNIRLostPackets 4433
scalar RSUExampleScenario.node[22].nic.mac1609_4 RXTXLostPackets 0
scalar RSUExampleScenario.node[22].nic.mac1609_4 TotalLostPackets 4433
scalar RSUExampleScenario.node[22].nic.mac1609_4 DroppedPacketsInMac 0
scalar RSUExampleScenario.node[22].nic.mac1609_4 TooLittleTime 0
scalar RSUExampleScenario.node[22].nic.mac1609_4 TimesIntoBackoff 831
scalar RSUExampleScenario.node[22].nic.mac1609_4 SlotsBackoff 1266
scalar RSUExampleScenario.node[22].nic.mac1609_4 NumInternalContention 0
scalar RSUExampleScenario.node[22].nic.mac1609_4 totalBusyTime 3.811951
scalar RSUExampleScenario.node[22].nic.mac1609_4 retriesExceeded:count 0
attr source org_car2x_veins_modules_mac_sigRetriesExceeded
scalar RSUExampleScenario.node[22].nic.mac1609_4 sentAcks:count 0
attr source org_car2x_veins_modules_mac_sigSentAck
scalar RSUExampleScenario.node[22].nic.mac1609_4 sentPackets:count 831
attr source org_car2x_veins_modules_mac_sigSentPacket
scalar RSUExampleScenario.node[22].nic.mac1609_4 collisions:count 0
attr source org_car2x_veins_modules_mac_sigCollision
scalar RSUExampleScenario.node[22].nic.mac1609_4 channelBusy:timeavg 0.045927999618903
attr source org_car2x_veins_modules_mac_sigChannelBusy
scalar RSUExampleScenario.node[22].veinsmobility startTime 36.1
scalar RSUExampleScenario.node[22].veinsmobility totalTime 82.9
scalar RSUExampleScenario.node[22].veinsmobility stopTime 119.1
scalar RSUExampleScenario.node[22].veinsmobility minSpeed 5.4705325450629
scalar RSUExampleScenario.node[22].veinsmobility maxSpeed 10.041819169928
scalar RSUExampleScenario.node[22].veinsmobility totalDistance 749.33935900311
scalar RSUExampleScenario.node[22].veinsmobility totalCO2Emission 206.87319997791
scalar RSUExampleScenario.manager roiArea 0
scalar RSUExampleScenario.node[3].appl generatedWSMs 1
scalar RSUExampleScenario.node[3].appl receivedWSMs 64
scalar RSUExampleScenario.node[3].appl generatedBSMs 1159
scalar RSUExampleScenario.node[3].appl receivedBSMs 39079
scalar RSUExampleScenario.node[3].appl generatedWSAs 0
scalar RSUExampleScenario.node[3].appl receivedWSAs 0
scalar RSUExampleScenario.node[3].nic.phy80211p busyTime 0.036251734253661
scalar RSUExampleScenario.node[3].nic.mac1609_4 ReceivedUnicastPackets 0
scalar RSUExampleScenario.node[3].nic.mac1609_4 ReceivedBroadcasts 39143
scalar RSUExampleScenario.node[3].nic.mac1609_4 SentPackets 1160
scalar RSUExampleScenario.node[3].nic.mac1609_4 SentAcknowledgements 0
scalar RSUExampleScenario.node[3].nic.mac1609_4 RetriesExceeded 0
scalar RSUExampleScenario.node[3].nic.mac1609_4 SNIRLostPackets 1177
scalar RSUExampleScenario.node[3].nic.mac1609_4 RXTXLostPackets 0
scalar RSUExampleScenario.node[3].nic.mac1609_4 TotalLostPackets 1177
scalar RSUExampleScenario.node[3].nic.mac1609_4 DroppedPacketsInMac 0
scalar RSUExampleScenario.node[3].nic.mac1609_4 TooLittleTime 0
scalar RSUExampleScenario.node[3].nic.mac1609_4 TimesIntoBackoff 1160
scalar RSUExampleScenario.node[3].nic.mac1609_4 SlotsBackoff 1774
scalar RSUExampleScenario.node[3].nic.mac1609_4 NumInternalContention 0
scalar RSUExampleScenario.node[3].nic.mac1609_4 totalBusyTime 4.291784
scalar RSUExampleScenario.node[3].nic.mac1609_4 retriesExceeded:count 0
attr source org_car2x_veins_modules_mac_sigRetriesExceeded
scalar RSUExampleScenario.node[3].nic.mac1609_4 sentAcks:count 0
attr source org_car2x_veins_modules_mac_sigSentAck
scalar RSUExampleScenario.node[3].nic.mac1609_4 sentPackets:count 1160
attr source org_car2x_veins_modules_mac_sigSentPacket
scalar RSUExampleScenario.node[3].nic.mac1609_4 collisions:count 0
attr source org_car2x_veins_modules_mac_sigCollision
scalar RSUExampleScenario.node[3].nic.mac1609_4 channelBusy:timeavg 0.037030713332507
attr source org_car2x_veins_modules_mac_sigChannelBusy
scalar RSUExampleScenario.node[3].veinsmobility startTime 4.1
scalar RSUExampleScenario.node[3].veinsmobility totalTime 115.9
scalar RSUExampleScenario.node[3].veinsmobility stopTime 120
scalar RSUExampleScenario.node[3].veinsmobility minSpeed 0
scalar RSUExampleScenario.node[3].veinsmobility maxSpeed 10.152364886476
scalar RSUExampleScenario.node[3].veinsmobility totalDistance 500.17439108066
scalar RSUExampleScenario.node[3].veinsmobility totalCO2Emission 189.3072714691
scalar RSUExampleScenario.node[7].appl generatedWSMs 1
scalar RSUExampleScenario.node[7].appl receivedWSMs 55
scalar RSUExampleScenario.node[7].appl generatedBSMs 1079
scalar RSUExampleScenario.node[7].appl receivedBSMs 36246
scalar RSUExampleScenario.node[7].appl generatedWSAs 0
scalar RSUExampleScenario.node[7].appl receivedWSAs 0
scalar RSUExampleScenario.node[7].nic.phy80211p busyTime 0.038342910101938
scalar RSUExampleScenario.node[7].nic.mac1609_4 ReceivedUnicastPackets 0
scalar RSUExampleScenario.node[7].nic.mac1609_4 ReceivedBroadcasts 36301
scalar RSUExampleScenario.node[7].nic.mac1609_4 SentPackets 1080
scalar RSUExampleScenario.node[7].nic.mac1609_4 SentAcknowledgements 0
scalar RSUExampleScenario.node[7].nic.mac1609_4 RetriesExceeded 0
scalar RSUExampleScenario.node[7].nic.mac1609_4 SNIRLostPackets 3400
scalar RSUExampleScenario.node[7].nic.mac1609_4 RXTXLostPackets 249
scalar RSUExampleScenario.node[7].nic.mac1609_4 TotalLostPackets 3649
scalar RSUExampleScenario.node[7].nic.mac1609_4 DroppedPacketsInMac 0
scalar RSUExampleScenario.node[7].nic.mac1609_4 TooLittleTime 0
scalar RSUExampleScenario.node[7].nic.mac1609_4 TimesIntoBackoff 1859
scalar RSUExampleScenario.node[7].nic.mac1609_4 SlotsBackoff 2801
scalar RSUExampleScenario.node[7].nic.mac1609_4 NumInternalContention 0
scalar RSUExampleScenario.node[7].nic.mac1609_4 totalBusyTime 4.244904
scalar RSUExampleScenario.node[7].nic.mac1609_4 retriesExceeded:count 0
attr source org_car2x_veins_modules_mac_sigRetriesExceeded
scalar RSUExampleScenario.node[7].nic.mac1609_4 sentAcks:count 0
attr source org_car2x_veins_modules_mac_sigSentAck
scalar RSUExampleScenario.node[7].nic.mac1609_4 sentPackets:count 1080
attr source org_car2x_veins_modules_mac_sigSentPacket
scalar RSUExampleScenario.node[7].nic.mac1609_4 collisions:count 0
attr source org_car2x_veins_modules_mac_sigCollision
scalar RSUExampleScenario.node[7].nic.mac1609_4 channelBusy:timeavg 0.039341788078179
attr source org_car2x_veins_modules_mac_sigChannelBusy
scalar RSUExampleScenario.node[7].veinsmobility startTime 12.1
scalar RSUExampleScenario.node[7].veinsmobility totalTime 107.9
scalar RSUExampleScenario.node[7].veinsmobility stopTime 120
scalar RSUExampleScenario.node[7].veinsmobility minSpeed 0.013409418154686
scalar RSUExampleScenario.node[7].veinsmobility maxSpeed 7.6442718887416
scalar RSUExampleScenario.node[7].veinsmobility totalDistance 722.89657751091
scalar RSUExampleScenario.node[7].veinsmobility totalCO2Emission 211.13018481929
scalar RSUExampleScenario.node[9].appl generatedWSMs 1
scalar RSUExampleScenario.node[9].appl receivedWSMs 58
scalar RSUExampleScenario.node[9].appl generatedBSMs 1049
scalar RSUExampleScenario.node[9].appl receivedBSMs 36189
scalar RSUExampleScenario.node[9].appl generatedWSAs 0
scalar RSUExampleScenario.node[9].appl receivedWSAs 0
scalar RSUExampleScenario.node[9].nic.phy80211p busyTime 0.039448388941841
scalar RSUExampleScenario.node[9].nic.mac1609_4 ReceivedUnicastPackets 0
scalar RSUExampleScenario.node[9].nic.mac1609_4 ReceivedBroadcasts 36247
scalar RSUExampleScenario.node[9].nic.mac1609_4 SentPackets 1050
scalar RSUExampleScenario.node[9].nic.mac1609_4 SentAcknowledgements 0
scalar RSUExampleScenario.node[9].nic.mac1609_4 RetriesExceeded 0
scalar RSUExampleScenario.node[9].nic.mac1609_4 SNIRLostPackets 3463
scalar RSUExampleScenario.node[9].nic.mac1609_4 RXTXLostPackets 0
scalar RSUExampleScenario.node[9].nic.mac1609_4 TotalLostPackets 3463
scalar RSUExampleScenario.node[9].nic.mac1609_4 DroppedPacketsInMac 0
scalar RSUExampleScenario.node[9].nic.mac1609_4 TooLittleTime 0
scalar RSUExampleScenario.node[9].nic.mac1609_4 TimesIntoBackoff 1051
scalar RSUExampleScenario.node[9].nic.mac1609_4 SlotsBackoff 1478
scalar RSUExampleScenario.node[9].nic.mac1609_4 NumInternalContention 0
scalar RSUExampleScenario.node[9].nic.mac1609_4 totalBusyTime 4.216805011503
scalar RSUExampleScenario.node[9].nic.mac1609_4 retriesExceeded:count 0
attr source org_car2x_veins_modules_mac_sigRetriesExceeded
scalar RSUExampleScenario.node[9].nic.mac1609_4 sentAcks:count 0
attr source org_car2x_veins_modules_mac_sigSentAck
scalar RSUExampleScenario.node[9].nic.mac1609_4 sentPackets:count 1050
attr source org_car2x_veins_modules_mac_sigSentPacket
scalar RSUExampleScenario.node[9].nic.mac1609_4 collisions:count 0
attr source org_car2x_veins_modules_mac_sigCollision
scalar RSUExampleScenario.node[9].nic.mac1609_4 channelBusy:timeavg 0.040199046678736
attr source org_car2x_veins_modules_mac_sigChannelBusy
scalar RSUExampleScenario.node[9].veinsmobility startTime 15.1
scalar RSUExampleScenario.node[9].veinsmobility totalTime 104.9
scalar RSUExampleScenario.node[9].veinsmobility stopTime 120
scalar RSUExampleScenario.node[9].veinsmobility minSpeed 0.066174156482738
scalar RSUExampleScenario.node[9].veinsmobility maxSpeed 9.7471249922462
scalar RSUExampleScenario.node[9].veinsmobility totalDistance 707.45599984615
scalar RSUExampleScenario.node[9].veinsmobility totalCO2Emission 210.37466148112
scalar RSUExampleScenario.node[11].appl generatedWSMs 1
scalar RSUExampleScenario.node[11].appl receivedWSMs 59
scalar RSUExampleScenario.node[11].appl generatedBSMs 1019
scalar RSUExampleScenario.node[11].appl receivedBSMs 36185
scalar RSUExampleScenario.node[11].appl generatedWSAs 0
scalar RSUExampleScenario.node[11].appl receivedWSAs 0
scalar RSUExampleScenario.node[11].nic.phy80211p busyTime 0.040313797841011
scalar RSUExampleScenario.node[11].nic.mac1609_4 ReceivedUnicastPackets 0
scalar RSUExampleScenario.node[11].nic.mac1609_4 ReceivedBroadcasts 36244
scalar RSUExampleScenario.node[11].nic.mac1609_4 SentPackets 1020
scalar RSUExampleScenario.node[11].nic.mac1609_4 SentAcknowledgements 0
scalar RSUExampleScenario.node[11].nic.mac1609_4 RetriesExceeded 0
scalar RSUExampleScenario.node[11].nic.mac1609_4 SNIRLostPackets 3176
scalar RSUExampleScenario.node[11].nic.mac1609_4 RXTXLostPackets 0
scalar RSUExampleScenario.node[11].nic.mac1609_4 TotalLostPackets 3176
scalar RSUExampleScenario.node[11].nic.mac1609_4 DroppedPacketsInMac 0
scalar RSUExampleScenario.node[11].nic.mac1609_4 TooLittleTime 0
scalar RSUExampleScenario.node[11].nic.mac1609_4 TimesIntoBackoff 1619
scalar RSUExampleScenario.node[11].nic.mac1609_4 SlotsBackoff 2483
scalar RSUExampleScenario.node[11].nic.mac1609_4 NumInternalContention 0
scalar RSUExampleScenario.node[11].nic.mac1609_4 totalBusyTime 4.183484
scalar RSUExampleScenario.node[11].nic.mac1609_4 retriesExceeded:count 0
attr source org_car2x_veins_modules_mac_sigRetriesExceeded
scalar RSUExampleScenario.node[11].nic.mac1609_4 sentAcks:count 0
attr source org_car2x_veins_modules_mac_sigSentAck
scalar RSUExampleScenario.node[11].nic.mac1609_4 sentPackets:count 1020
attr source org_car2x_veins_modules_mac_sigSentPacket
scalar RSUExampleScenario.node[11].nic.mac1609_4 collisions:count 0
attr source org_car2x_veins_modules_mac_sigCollision
scalar RSUExampleScenario.node[11].nic.mac1609_4 channelBusy:timeavg 0.04105553519595
attr source org_car2x_veins_modules_mac_sigChannelBusy
scalar RSUExampleScenario.node[11].veinsmobility startTime 18.1
scalar RSUExampleScenario.node[11].veinsmobility totalTime 101.9
scalar RSUExampleScenario.node[11].veinsmobility stopTime 120
scalar RSUExampleScenario.node[11].veinsmobility minSpeed 0.1782308818857
scalar RSUExampleScenario.node[11].veinsmobility maxSpeed 9.4473521226263
scalar RSUExampleScenario.node[11].veinsmobility totalDistance 692.04201999309
scalar RSUExampleScenario.node[11].veinsmobility totalCO2Emission 213.23671906772
scalar RSUExampleScenario.node[13].appl generatedWSMs 1
scalar RSUExampleScenario.node[13].appl receivedWSMs 60
scalar RSUExampleScenario.node[13].appl generatedBSMs 989
scalar RSUExampleScenario.node[13].appl receivedBSMs 36053
scalar RSUExampleScenario.node[13].appl generatedWSAs 0
scalar RSUExampleScenario.node[13].appl receivedWSAs 0
scalar RSUExampleScenario.node[13].nic.phy80211p busyTime 0.041179130434772
scalar RSUExampleScenario.node[13].nic.mac1609_4 ReceivedUnicastPackets 0
scalar RSUExampleScenario.node[13].nic.mac1609_4 ReceivedBroadcasts 36113
scalar RSUExampleScenario.node[13].nic.mac1609_4 SentPackets 990
scalar RSUExampleScenario.node[13].nic.mac1609_4 SentAcknowledgements 0
scalar RSUExampleScenario.node[13].nic.mac1609_4 RetriesExceeded 0
scalar RSUExampleScenario.node[13].nic.mac1609_4 SNIRLostPackets 2967
scalar RSUExampleScenario.node[13].nic.mac1609_4 RXTXLostPackets 0
scalar RSUExampleScenario.node[13].nic.mac1609_4 TotalLostPackets 2967
scalar RSUExampleScenario.node[13].nic.mac1609_4 DroppedPacketsInMac 0
scalar RSUExampleScenario.node[13].nic.mac1609_4 TooLittleTime 0
scalar RSUExampleScenario.node[13].nic.mac1609_4 TimesIntoBackoff 990
scalar RSUExampleScenario.node[13].nic.mac1609_4 SlotsBackoff 1501
scalar RSUExampleScenario.node[13].nic.mac1609_4 NumInternalContention 0
scalar RSUExampleScenario.node[13].nic.mac1609_4 totalBusyTime 4.144974
scalar RSUExampleScenario.node[13].nic.mac1609_4 retriesExceeded:count 0
attr source org_car2x_veins_modules_mac_sigRetriesExceeded
scalar RSUExampleScenario.node[13].nic.mac1609_4 sentAcks:count 0
attr source org_car2x_veins_modules_mac_sigSentAck
scalar RSUExampleScenario.node[13].nic.mac1609_4 sentPackets:count 990
attr source org_car2x_veins_modules_mac_sigSentPacket
scalar RSUExampleScenario.node[13].nic.mac1609_4 collisions:count 0
attr source org_car2x_veins_modules_mac_sigCollision
scalar RSUExampleScenario.node[13].nic.mac1609_4 channelBusy:timeavg 0.041911517572125
attr source org_car2x_veins_modules_mac_sigChannelBusy
scalar RSUExampleScenario.node[13].veinsmobility startTime 21.1
scalar RSUExampleScenario.node[13].veinsmobility totalTime 98.9
scalar RSUExampleScenario.node[13].veinsmobility stopTime 120
scalar RSUExampleScenario.node[13].veinsmobility minSpeed 0.35227049175486
scalar RSUExampleScenario.node[13].veinsmobility maxSpeed 9.8637394017329
scalar RSUExampleScenario.node[13].veinsmobility totalDistance 676.64375206364
scalar RSUExampleScenario.node[13].veinsmobility totalCO2Emission 203.12303880101
scalar RSUExampleScenario.node[14].appl generatedWSMs 1
scalar RSUExampleScenario.node[14].appl receivedWSMs 62
scalar RSUExampleScenario.node[14].appl generatedBSMs 959
scalar RSUExampleScenario.node[14].appl receivedBSMs 35839
scalar RSUExampleScenario.node[14].appl generatedWSAs 0
scalar RSUExampleScenario.node[14].appl receivedWSAs 0
scalar RSUExampleScenario.node[14].nic.phy80211p busyTime 0.042044379562031
scalar RSUExampleScenario.node[14].nic.mac1609_4 ReceivedUnicastPackets 0
scalar RSUExampleScenario.node[14].nic.mac1609_4 ReceivedBroadcasts 35901
scalar RSUExampleScenario.node[14].nic.mac1609_4 SentPackets 960
scalar RSUExampleScenario.node[14].nic.mac1609_4 SentAcknowledgements 0
scalar RSUExampleScenario.node[14].nic.mac1609_4 RetriesExceeded 0
scalar RSUExampleScenario.node[14].nic.mac1609_4 SNIRLostPackets 2789
scalar RSUExampleScenario.node[14].nic.mac1609_4 RXTXLostPackets 0
scalar RSUExampleScenario.node[14].nic.mac1609_4 TotalLostPackets 2789
scalar RSUExampleScenario.node[14].nic.mac1609_4 DroppedPacketsInMac 0
scalar RSUExampleScenario.node[14].nic.mac1609_4 TooLittleTime 0
scalar RSUExampleScenario.node[14].nic.mac1609_4 TimesIntoBackoff 960
scalar RSUExampleScenario.node[14].nic.mac1609_4 SlotsBackoff 1404
scalar RSUExampleScenario.node[14].nic.mac1609_4 NumInternalContention 0
scalar RSUExampleScenario.node[14].nic.mac1609_4 totalBusyTime 4.101264
scalar RSUExampleScenario.node[14].nic.mac1609_4 retriesExceeded:count 0
attr source org_car2x_veins_modules_mac_sigRetriesExceeded
scalar RSUExampleScenario.node[14].nic.mac1609_4 sentAcks:count 0
attr source org_car2x_veins_modules_mac_sigSentAck
scalar RSUExampleScenario.node[14].nic.mac1609_4 sentPackets:count 960
attr source org_car2x_veins_modules_mac_sigSentPacket
scalar RSUExampleScenario.node[14].nic.mac1609_4 collisions:count 0
attr source org_car2x_veins_modules_mac_sigCollision
scalar RSUExampleScenario.node[14].nic.mac1609_4 channelBusy:timeavg 0.042766831483921
attr source org_car2x_veins_modules_mac_sigChannelBusy
scalar RSUExampleScenario.node[14].veinsmobility startTime 24.1
scalar RSUExampleScenario.node[14].veinsmobility totalTime 95.9
scalar RSUExampleScenario.node[14].veinsmobility stopTime 120
scalar RSUExampleScenario.node[14].veinsmobility minSpeed 0.56977716717406
scalar RSUExampleScenario.node[14].veinsmobility maxSpeed 10.374326016501
scalar RSUExampleScenario.node[14].veinsmobility totalDistance 661.21368952975
scalar RSUExampleScenario.node[14].veinsmobility totalCO2Emission 197.42198864398
scalar RSUExampleScenario.node[16].appl generatedWSMs 1
scalar RSUExampleScenario.node[16].appl receivedWSMs 62
scalar RSUExampleScenario.node[16].appl generatedBSMs 929
scalar RSUExampleScenario.node[16].appl receivedBSMs 35612
scalar RSUExampleScenario.node[16].appl generatedWSAs 0
scalar RSUExampleScenario.node[16].appl receivedWSAs 0
scalar RSUExampleScenario.node[16].nic.phy80211p busyTime 0.042898342303538
scalar RSUExampleScenario.node[16].nic.mac1609_4 ReceivedUnicastPackets 0
scalar RSUExampleScenario.node[16].nic.mac1609_4 ReceivedBroadcasts 35674
scalar RSUExampleScenario.node[16].nic.mac1609_4 SentPackets 930
scalar RSUExampleScenario.node[16].nic.mac1609_4 SentAcknowledgements 0
scalar RSUExampleScenario.node[16].nic.mac1609_4 RetriesExceeded 0
scalar RSUExampleScenario.node[16].nic.mac1609_4 SNIRLostPackets 2566
scalar RSUExampleScenario.node[16].nic.mac1609_4 RXTXLostPackets 0
scalar RSUExampleScenario.node[16].nic.mac1609_4 TotalLostPackets 2566
scalar RSUExampleScenario.node[16].nic.mac1609_4 DroppedPacketsInMac 0
scalar RSUExampleScenario.node[16].nic.mac1609_4 TooLittleTime 0
scalar RSUExampleScenario.node[16].nic.mac1609_4 TimesIntoBackoff 1759
scalar RSUExampleScenario.node[16].nic.mac1609_4 SlotsBackoff 2741
scalar RSUExampleScenario.node[16].nic.mac1609_4 NumInternalContention 0
scalar RSUExampleScenario.node[16].nic.mac1609_4 totalBusyTime 4.051314
scalar RSUExampleScenario.node[16].nic.mac1609_4 retriesExceeded:count 0
attr source org_car2x_veins_modules_mac_sigRetriesExceeded
scalar RSUExampleScenario.node[16].nic.mac1609_4 sentAcks:count 0
attr source org_car2x_veins_modules_mac_sigSentAck
scalar RSUExampleScenario.node[16].nic.mac1609_4 sentPackets:count 930
attr source org_car2x_veins_modules_mac_sigSentPacket
scalar RSUExampleScenario.node[16].nic.mac1609_4 collisions:count 0
attr source org_car2x_veins_modules_mac_sigCollision
scalar RSUExampleScenario.node[16].nic.mac1609_4 channelBusy:timeavg 0.043610217338416
attr source org_car2x_veins_modules_mac_sigChannelBusy
scalar RSUExampleScenario.node[16].veinsmobility startTime 27.1
scalar RSUExampleScenario.node[16].veinsmobility totalTime 92.9
scalar RSUExampleScenario.node[16].veinsmobility stopTime 120
scalar RSUExampleScenario.node[16].veinsmobility minSpeed 0.78132097461771
scalar RSUExampleScenario.node[16].veinsmobility maxSpeed 10.56919783998
scalar RSUExampleScenario.node[16].veinsmobility totalDistance 645.79999233201
scalar RSUExampleScenario.node[16].veinsmobility totalCO2Emission 193.79678045474
scalar RSUExampleScenario.node[17].appl generatedWSMs 1
scalar RSUExampleScenario.node[17].appl receivedWSMs 64
scalar RSUExampleScenario.node[17].appl generatedBSMs 919
scalar RSUExampleScenario.node[17].appl receivedBSMs 36373
scalar RSUExampleScenario.node[17].appl generatedWSAs 0
scalar RSUExampleScenario.node[17].appl receivedWSAs 0
scalar RSUExampleScenario.node[17].nic.phy80211p busyTime 0.0431840696409
scalar RSUExampleScenario.node[17].nic.mac1609_4 ReceivedUnicastPackets 0
scalar RSUExampleScenario.node[17].nic.mac1609_4 ReceivedBroadcasts 36437
scalar RSUExampleScenario.node[17].nic.mac1609_4 SentPackets 920
scalar RSUExampleScenario.node[17].nic.mac1609_4 SentAcknowledgements 0
scalar RSUExampleScenario.node[17].nic.mac1609_4 RetriesExceeded 0
scalar RSUExampleScenario.node[17].nic.mac1609_4 SNIRLostPackets 1643
scalar RSUExampleScenario.node[17].nic.mac1609_4 RXTXLostPackets 0
scalar RSUExampleScenario.node[17].nic.mac1609_4 TotalLostPackets 1643
scalar RSUExampleScenario.node[17].nic.mac1609_4 DroppedPacketsInMac 0
scalar RSUExampleScenario.node[17].nic.mac1609_4 TooLittleTime 0
scalar RSUExampleScenario.node[17].nic.mac1609_4 TimesIntoBackoff 920
scalar RSUExampleScenario.node[17].nic.mac1609_4 SlotsBackoff 1404
scalar RSUExampleScenario.node[17].nic.mac1609_4 NumInternalContention 0
scalar RSUExampleScenario.node[17].nic.mac1609_4 totalBusyTime 4.033624
scalar RSUExampleScenario.node[17].nic.mac1609_4 retriesExceeded:count 0
attr source org_car2x_veins_modules_mac_sigRetriesExceeded
scalar RSUExampleScenario.node[17].nic.mac1609_4 sentAcks:count 0
attr source org_car2x_veins_modules_mac_sigSentAck
scalar RSUExampleScenario.node[17].nic.mac1609_4 sentPackets:count 920
attr source org_car2x_veins_modules_mac_sigSentPacket
scalar RSUExampleScenario.node[17].nic.mac1609_4 collisions:count 0
attr source org_car2x_veins_modules_mac_sigCollision
scalar RSUExampleScenario.node[17].nic.mac1609_4 channelBusy:timeavg 0.043892269042392
attr source org_car2x_veins_modules_mac_sigChannelBusy
scalar RSUExampleScenario.node[17].veinsmobility startTime 28.1
scalar RSUExampleScenario.node[17].veinsmobility totalTime 91.9
scalar RSUExampleScenario.node[17].veinsmobility stopTime 120
scalar RSUExampleScenario.node[17].veinsmobility minSpeed 0
scalar RSUExampleScenario.node[17].veinsmobility maxSpeed 7.2419949113317
scalar RSUExampleScenario.node[17].veinsmobility totalDistance 545.31202115611
scalar RSUExampleScenario.node[17].veinsmobility totalCO2Emission 169.03967361457
scalar RSUExampleScenario.node[18].appl generatedWSMs 1
scalar RSUExampleScenario.node[18].appl receivedWSMs 62
scalar RSUExampleScenario.node[18].appl generatedBSMs 899
scalar RSUExampleScenario.node[18].appl receivedBSMs 35258
scalar RSUExampleScenario.node[18].appl generatedWSAs 0
scalar RSUExampleScenario.node[18].appl receivedWSAs 0
scalar RSUExampleScenario.node[18].nic.phy80211p busyTime 0.043751457174625
scalar RSUExampleScenario.node[18].nic.mac1609_4 ReceivedUnicastPackets 0
scalar RSUExampleScenario.node[18].nic.mac1609_4 ReceivedBroadcasts 35320
scalar RSUExampleScenario.node[18].nic.mac1609_4 SentPackets 900
scalar RSUExampleScenario.node[18].nic.mac1609_4 SentAcknowledgements 0
scalar RSUExampleScenario.node[18].nic.mac1609_4 RetriesExceeded 0
scalar RSUExampleScenario.node[18].nic.mac1609_4 SNIRLostPackets 2420
scalar RSUExampleScenario.node[18].nic.mac1609_4 RXTXLostPackets 0
scalar RSUExampleScenario.node[18].nic.mac1609_4 TotalLostPackets 2420
scalar RSUExampleScenario.node[18].nic.mac1609_4 DroppedPacketsInMac 0
scalar RSUExampleScenario.node[18].nic.mac1609_4 TooLittleTime 0
scalar RSUExampleScenario.node[18].nic.mac1609_4 TimesIntoBackoff 900
scalar RSUExampleScenario.node[18].nic.mac1609_4 SlotsBackoff 1369
scalar RSUExampleScenario.node[18].nic.mac1609_4 NumInternalContention 0
scalar RSUExampleScenario.node[18].nic.mac1609_4 totalBusyTime 3.996164
scalar RSUExampleScenario.node[18].nic.mac1609_4 retriesExceeded:count 0
attr source org_car2x_veins_modules_mac_sigRetriesExceeded
scalar RSUExampleScenario.node[18].nic.mac1609_4 sentAcks:count 0
attr source org_car2x_veins_modules_mac_sigSentAck
scalar RSUExampleScenario.node[18].nic.mac1609_4 sentPackets:count 900
attr source org_car2x_veins_modules_mac_sigSentPacket
scalar RSUExampleScenario.node[18].nic.mac1609_4 collisions:count 0
attr source org_car2x_veins_modules_mac_sigCollision
scalar RSUExampleScenario.node[18].nic.mac1609_4 channelBusy:timeavg 0.044452049413245
attr source org_car2x_veins_modules_mac_sigChannelBusy
scalar RSUExampleScenario.node[18].veinsmobility startTime 30.1
scalar RSUExampleScenario.node[18].veinsmobility totalTime 89.9
scalar RSUExampleScenario.node[18].veinsmobility stopTime 120
scalar RSUExampleScenario.node[18].veinsmobility minSpeed 1.0725728605643
scalar RSUExampleScenario.node[18].veinsmobility maxSpeed 11.073080537186
scalar RSUExampleScenario.node[18].veinsmobility totalDistance 630.3380173678
scalar RSUExampleScenario.node[18].veinsmobility totalCO2Emission 186.19520993429
scalar RSUExampleScenario.node[20].appl generatedWSMs 1
scalar RSUExampleScenario.node[20].appl receivedWSMs 62
scalar RSUExampleScenario.node[20].appl generatedBSMs 869
scalar RSUExampleScenario.node[20].appl receivedBSMs 35015
scalar RSUExampleScenario.node[20].appl generatedWSAs 0
scalar RSUExampleScenario.node[20].appl receivedWSAs 0
scalar RSUExampleScenario.node[20].nic.phy80211p busyTime 0.044600966628295
scalar RSUExampleScenario.node[20].nic.mac1609_4 ReceivedUnicastPackets 0
scalar RSUExampleScenario.node[20].nic.mac1609_4 ReceivedBroadcasts 35077
scalar RSUExampleScenario.node[20].nic.mac1609_4 SentPackets 870
scalar RSUExampleScenario.node[20].nic.mac1609_4 SentAcknowledgements 0
scalar RSUExampleScenario.node[20].nic.mac1609_4 RetriesExceeded 0
scalar RSUExampleScenario.node[20].nic.mac1609_4 SNIRLostPackets 2112
scalar RSUExampleScenario.node[20].nic.mac1609_4 RXTXLostPackets 0
scalar RSUExampleScenario.node[20].nic.mac1609_4 TotalLostPackets 2112
scalar RSUExampleScenario.node[20].nic.mac1609_4 DroppedPacketsInMac 0
scalar RSUExampleScenario.node[20].nic.mac1609_4 TooLittleTime 0
scalar RSUExampleScenario.node[20].nic.mac1609_4 TimesIntoBackoff 870
scalar RSUExampleScenario.node[20].nic.mac1609_4 SlotsBackoff 1273
scalar RSUExampleScenario.node[20].nic.mac1609_4 NumInternalContention 0
scalar RSUExampleScenario.node[20].nic.mac1609_4 totalBusyTime 3.935582
scalar RSUExampleScenario.node[20].nic.mac1609_4 retriesExceeded:count 0
attr source org_car2x_veins_modules_mac_sigRetriesExceeded
scalar RSUExampleScenario.node[20].nic.mac1609_4 sentAcks:count 0
attr source org_car2x_veins_modules_mac_sigSentAck
scalar RSUExampleScenario.node[20].nic.mac1609_4 sentPackets:count 870
attr source org_car2x_veins_modules_mac_sigSentPacket
scalar RSUExampleScenario.node[20].nic.mac1609_4 collisions:count 0
attr source org_car2x_veins_modules_mac_sigCollision
scalar RSUExampleScenario.node[20].nic.mac1609_4 channelBusy:timeavg 0.045289497050205
attr source org_car2x_veins_modules_mac_sigChannelBusy
scalar RSUExampleScenario.node[20].veinsmobility startTime 33.1
scalar RSUExampleScenario.node[20].veinsmobility totalTime 86.9
scalar RSUExampleScenario.node[20].veinsmobility stopTime 120
scalar RSUExampleScenario.node[20].veinsmobility minSpeed 1.3378283308069
scalar RSUExampleScenario.node[20].veinsmobility maxSpeed 11.830318772409
scalar RSUExampleScenario.node[20].veinsmobility totalDistance 614.90819275443
scalar RSUExampleScenario.node[20].veinsmobility totalCO2Emission 182.27513564046
scalar RSUExampleScenario.node[21].appl generatedWSMs 1
scalar RSUExampleScenario.node[21].appl receivedWSMs 43
scalar RSUExampleScenario.node[21].appl generatedBSMs 839
scalar RSUExampleScenario.node[21].appl receivedBSMs 34543
scalar RSUExampleScenario.node[21].appl generatedWSAs 0
scalar RSUExampleScenario.node[21].appl receivedWSAs 0
scalar RSUExampleScenario.node[21].nic.phy80211p busyTime 0.045399475566137
scalar RSUExampleScenario.node[21].nic.mac1609_4 ReceivedUnicastPackets 0
scalar RSUExampleScenario.node[21].nic.mac1609_4 ReceivedBroadcasts 34586
scalar RSUExampleScenario.node[21].nic.mac1609_4 SentPackets 840
scalar RSUExampleScenario.node[21].nic.mac1609_4 SentAcknowledgements 0
scalar RSUExampleScenario.node[21].nic.mac1609_4 RetriesExceeded 0
scalar RSUExampleScenario.node[21].nic.mac1609_4 SNIRLostPackets 1984
scalar RSUExampleScenario.node[21].nic.mac1609_4 RXTXLostPackets 0
scalar RSUExampleScenario.node[21].nic.mac1609_4 TotalLostPackets 1984
scalar RSUExampleScenario.node[21].nic.mac1609_4 DroppedPacketsInMac 0
scalar RSUExampleScenario.node[21].nic.mac1609_4 TooLittleTime 0
scalar RSUExampleScenario.node[21].nic.mac1609_4 TimesIntoBackoff 840
scalar RSUExampleScenario.node[21].nic.mac1609_4 SlotsBackoff 1315
scalar RSUExampleScenario.node[21].nic.mac1609_4 NumInternalContention 0
scalar RSUExampleScenario.node[21].nic.mac1609_4 totalBusyTime 3.865624
scalar RSUExampleScenario.node[21].nic.mac1609_4 retriesExceeded:count 0
attr source org_car2x_veins_modules_mac_sigRetriesExceeded
scalar RSUExampleScenario.node[21].nic.mac1609_4 sentAcks:count 0
attr source org_car2x_veins_modules_mac_sigSentAck
scalar RSUExampleScenario.node[21].nic.mac1609_4 sentPackets:count 840
attr source org_car2x_veins_modules_mac_sigSentPacket
scalar RSUExampleScenario.node[21].nic.mac1609_4 collisions:count 0
attr source org_car2x_veins_modules_mac_sigCollision
scalar RSUExampleScenario.node[21].nic.mac1609_4 channelBusy:timeavg 0.046075081584861
attr source org_car2x_veins_modules_mac_sigChannelBusy
scalar RSUExampleScenario.node[21].veinsmobility startTime 36.1
scalar RSUExampleScenario.node[21].veinsmobility totalTime 83.9
scalar RSUExampleScenario.node[21].veinsmobility stopTime 120
scalar RSUExampleScenario.node[21].veinsmobility minSpeed 2.5685777373951
scalar RSUExampleScenario.node[21].veinsmobility maxSpeed 8.8522639966802
scalar RSUExampleScenario.node[21].veinsmobility totalDistance 599.52240087983
scalar RSUExampleScenario.node[21].veinsmobility totalCO2Emission 179.36406049107
scalar RSUExampleScenario.node[23].appl generatedWSMs 1
scalar RSUExampleScenario.node[23].appl receivedWSMs 41
scalar RSUExampleScenario.node[23].appl generatedBSMs 809
scalar RSUExampleScenario.node[23].appl receivedBSMs 34148
scalar RSUExampleScenario.node[23].appl generatedWSAs 0
scalar RSUExampleScenario.node[23].appl receivedWSAs 0
scalar RSUExampleScenario.node[23].nic.phy80211p busyTime 0.046225957972793
scalar RSUExampleScenario.node[23].nic.mac1609_4 ReceivedUnicastPackets 0
scalar RSUExampleScenario.node[23].nic.mac1609_4 ReceivedBroadcasts 34189
scalar RSUExampleScenario.node[23].nic.mac1609_4 SentPackets 810
scalar RSUExampleScenario.node[23].nic.mac1609_4 SentAcknowledgements 0
scalar RSUExampleScenario.node[23].nic.mac1609_4 RetriesExceeded 0
scalar RSUExampleScenario.node[23].nic.mac1609_4 SNIRLostPackets 1718
scalar RSUExampleScenario.node[23].nic.mac1609_4 RXTXLostPackets 0
scalar RSUExampleScenario.node[23].nic.mac1609_4 TotalLostPackets 1718
scalar RSUExampleScenario.node[23].nic.mac1609_4 DroppedPacketsInMac 0
scalar RSUExampleScenario.node[23].nic.mac1609_4 TooLittleTime 0
scalar RSUExampleScenario.node[23].nic.mac1609_4 TimesIntoBackoff 811
scalar RSUExampleScenario.node[23].nic.mac1609_4 SlotsBackoff 1245
scalar RSUExampleScenario.node[23].nic.mac1609_4 NumInternalContention 0
scalar RSUExampleScenario.node[23].nic.mac1609_4 totalBusyTime 3.793140128545
scalar RSUExampleScenario.node[23].nic.mac1609_4 retriesExceeded:count 0
attr source org_car2x_veins_modules_mac_sigRetriesExceeded
scalar RSUExampleScenario.node[23].nic.mac1609_4 sentAcks:count 0
attr source org_car2x_veins_modules_mac_sigSentAck
scalar RSUExampleScenario.node[23].nic.mac1609_4 sentPackets:count 810
attr source org_car2x_veins_modules_mac_sigSentPacket
scalar RSUExampleScenario.node[23].nic.mac1609_4 collisions:count 0
attr source org_car2x_veins_modules_mac_sigCollision
scalar RSUExampleScenario.node[23].nic.mac1609_4 channelBusy:timeavg 0.046887707799925
attr source org_car2x_veins_modules_mac_sigChannelBusy
scalar RSUExampleScenario.node[23].veinsmobility startTime 39.1
scalar RSUExampleScenario.node[23].veinsmobility totalTime 80.9
scalar RSUExampleScenario.node[23].veinsmobility stopTime 120
scalar RSUExampleScenario.node[23].veinsmobility minSpeed 5.0530852421124
scalar RSUExampleScenario.node[23].veinsmobility maxSpeed 7.4921553575448
scalar RSUExampleScenario.node[23].veinsmobility totalDistance 573.24974919124
scalar RSUExampleScenario.node[23].veinsmobility totalCO2Emission 165.62057086252
scalar RSUExampleScenario.node[24].appl generatedWSMs 1
scalar RSUExampleScenario.node[24].appl receivedWSMs 38
scalar RSUExampleScenario.node[24].appl generatedBSMs 799
scalar RSUExampleScenario.node[24].appl receivedBSMs 31542
scalar RSUExampleScenario.node[24].appl generatedWSAs 0
scalar RSUExampleScenario.node[24].appl receivedWSAs 0
scalar RSUExampleScenario.node[24].nic.phy80211p busyTime 0.046505131414255
scalar RSUExampleScenario.node[24].nic.mac1609_4 ReceivedUnicastPackets 0
scalar RSUExampleScenario.node[24].nic.mac1609_4 ReceivedBroadcasts 31580
scalar RSUExampleScenario.node[24].nic.mac1609_4 SentPackets 800
scalar RSUExampleScenario.node[24].nic.mac1609_4 SentAcknowledgements 0
scalar RSUExampleScenario.node[24].nic.mac1609_4 RetriesExceeded 0
scalar RSUExampleScenario.node[24].nic.mac1609_4 SNIRLostPackets 4097
scalar RSUExampleScenario.node[24].nic.mac1609_4 RXTXLostPackets 0
scalar RSUExampleScenario.node[24].nic.mac1609_4 TotalLostPackets 4097
scalar RSUExampleScenario.node[24].nic.mac1609_4 DroppedPacketsInMac 0
scalar RSUExampleScenario.node[24].nic.mac1609_4 TooLittleTime 0
scalar RSUExampleScenario.node[24].nic.mac1609_4 TimesIntoBackoff 800
scalar RSUExampleScenario.node[24].nic.mac1609_4 SlotsBackoff 1158
scalar RSUExampleScenario.node[24].nic.mac1609_4 NumInternalContention 0
scalar RSUExampleScenario.node[24].nic.mac1609_4 totalBusyTime 3.768168
scalar RSUExampleScenario.node[24].nic.mac1609_4 retriesExceeded:count 0
attr source org_car2x_veins_modules_mac_sigRetriesExceeded
scalar RSUExampleScenario.node[24].nic.mac1609_4 sentAcks:count 0
attr source org_car2x_veins_modules_mac_sigSentAck
scalar RSUExampleScenario.node[24].nic.mac1609_4 sentPackets:count 800
attr source org_car2x_veins_modules_mac_sigSentPacket
scalar RSUExampleScenario.node[24].nic.mac1609_4 collisions:count 0
attr source org_car2x_veins_modules_mac_sigCollision
scalar RSUExampleScenario.node[24].nic.mac1609_4 channelBusy:timeavg 0.047161988658598
attr source org_car2x_veins_modules_mac_sigChannelBusy
scalar RSUExampleScenario.node[24].veinsmobility startTime 40.1
scalar RSUExampleScenario.node[24].veinsmobility totalTime 79.9
scalar RSUExampleScenario.node[24].veinsmobility stopTime 120
scalar RSUExampleScenario.node[24].veinsmobility minSpeed 5.6242174573676
scalar RSUExampleScenario.node[24].veinsmobility maxSpeed 9.4083278636544
scalar RSUExampleScenario.node[24].veinsmobility totalDistance 734.09886518
scalar RSUExampleScenario.node[24].veinsmobility totalCO2Emission 185.07782506054
scalar RSUExampleScenario.node[25].appl generatedWSMs 1
scalar RSUExampleScenario.node[25].appl receivedWSMs 41
scalar RSUExampleScenario.node[25].appl generatedBSMs 779
scalar RSUExampleScenario.node[25].appl receivedBSMs 33574
scalar RSUExampleScenario.node[25].appl generatedWSAs 0
scalar RSUExampleScenario.node[25].appl receivedWSAs 0
scalar RSUExampleScenario.node[25].nic.phy80211p busyTime 0.046720513478807
scalar RSUExampleScenario.node[25].nic.mac1609_4 ReceivedUnicastPackets 0
scalar RSUExampleScenario.node[25].nic.mac1609_4 ReceivedBroadcasts 33615
scalar RSUExampleScenario.node[25].nic.mac1609_4 SentPackets 780
scalar RSUExampleScenario.node[25].nic.mac1609_4 SentAcknowledgements 0
scalar RSUExampleScenario.node[25].nic.mac1609_4 RetriesExceeded 0
scalar RSUExampleScenario.node[25].nic.mac1609_4 SNIRLostPackets 1329
scalar RSUExampleScenario.node[25].nic.mac1609_4 RXTXLostPackets 253
scalar RSUExampleScenario.node[25].nic.mac1609_4 TotalLostPackets 1582
scalar RSUExampleScenario.node[25].nic.mac1609_4 DroppedPacketsInMac 0
scalar RSUExampleScenario.node[25].nic.mac1609_4 TooLittleTime 0
scalar RSUExampleScenario.node[25].nic.mac1609_4 TimesIntoBackoff 1459
scalar RSUExampleScenario.node[25].nic.mac1609_4 SlotsBackoff 2180
scalar RSUExampleScenario.node[25].nic.mac1609_4 NumInternalContention 0
scalar RSUExampleScenario.node[25].nic.mac1609_4 totalBusyTime 3.716148
scalar RSUExampleScenario.node[25].nic.mac1609_4 retriesExceeded:count 0
attr source org_car2x_veins_modules_mac_sigRetriesExceeded
scalar RSUExampleScenario.node[25].nic.mac1609_4 sentAcks:count 0
attr source org_car2x_veins_modules_mac_sigSentAck
scalar RSUExampleScenario.node[25].nic.mac1609_4 sentPackets:count 780
attr source org_car2x_veins_modules_mac_sigSentPacket
scalar RSUExampleScenario.node[25].nic.mac1609_4 collisions:count 0
attr source org_car2x_veins_modules_mac_sigCollision
scalar RSUExampleScenario.node[25].nic.mac1609_4 channelBusy:timeavg 0.047705051133479
attr source org_car2x_veins_modules_mac_sigChannelBusy
scalar RSUExampleScenario.node[25].veinsmobility startTime 42.1
scalar RSUExampleScenario.node[25].veinsmobility totalTime 77.9
scalar RSUExampleScenario.node[25].veinsmobility stopTime 120
scalar RSUExampleScenario.node[25].veinsmobility minSpeed 5.2576911407786
scalar RSUExampleScenario.node[25].veinsmobility maxSpeed 9.4595493073354
scalar RSUExampleScenario.node[25].veinsmobility totalDistance 557.99233420363
scalar RSUExampleScenario.node[25].veinsmobility totalCO2Emission 164.3329545975
scalar RSUExampleScenario.node[26].appl generatedWSMs 1
scalar RSUExampleScenario.node[26].appl receivedWSMs 38
scalar RSUExampleScenario.node[26].appl generatedBSMs 759
scalar RSUExampleScenario.node[26].appl receivedBSMs 30933
scalar RSUExampleScenario.node[26].appl generatedWSAs 0
scalar RSUExampleScenario.node[26].appl receivedWSAs 0
scalar RSUExampleScenario.node[26].nic.phy80211p busyTime 0.047613175230555
scalar RSUExampleScenario.node[26].nic.mac1609_4 ReceivedUnicastPackets 0
scalar RSUExampleScenario.node[26].nic.mac1609_4 ReceivedBroadcasts 30971
scalar RSUExampleScenario.node[26].nic.mac1609_4 SentPackets 760
scalar RSUExampleScenario.node[26].nic.mac1609_4 SentAcknowledgements 0
scalar RSUExampleScenario.node[26].nic.mac1609_4 RetriesExceeded 0
scalar RSUExampleScenario.node[26].nic.mac1609_4 SNIRLostPackets 3726
scalar RSUExampleScenario.node[26].nic.mac1609_4 RXTXLostPackets 0
scalar RSUExampleScenario.node[26].nic.mac1609_4 TotalLostPackets 3726
scalar RSUExampleScenario.node[26].nic.mac1609_4 DroppedPacketsInMac 0
scalar RSUExampleScenario.node[26].nic.mac1609_4 TooLittleTime 0
scalar RSUExampleScenario.node[26].nic.mac1609_4 TimesIntoBackoff 1209
scalar RSUExampleScenario.node[26].nic.mac1609_4 SlotsBackoff 1821
scalar RSUExampleScenario.node[26].nic.mac1609_4 NumInternalContention 0
scalar RSUExampleScenario.node[26].nic.mac1609_4 totalBusyTime 3.662048
scalar RSUExampleScenario.node[26].nic.mac1609_4 retriesExceeded:count 0
attr source org_car2x_veins_modules_mac_sigRetriesExceeded
scalar RSUExampleScenario.node[26].nic.mac1609_4 sentAcks:count 0
attr source org_car2x_veins_modules_mac_sigSentAck
scalar RSUExampleScenario.node[26].nic.mac1609_4 sentPackets:count 760
attr source org_car2x_veins_modules_mac_sigSentPacket
scalar RSUExampleScenario.node[26].nic.mac1609_4 collisions:count 0
attr source org_car2x_veins_modules_mac_sigCollision
scalar RSUExampleScenario.node[26].nic.mac1609_4 channelBusy:timeavg 0.048249314247261
attr source org_car2x_veins_modules_mac_sigChannelBusy
scalar RSUExampleScenario.node[26].veinsmobility startTime 44.1
scalar RSUExampleScenario.node[26].veinsmobility totalTime 75.9
scalar RSUExampleScenario.node[26].veinsmobility stopTime 120
scalar RSUExampleScenario.node[26].veinsmobility minSpeed 5.4840684128429
scalar RSUExampleScenario.node[26].veinsmobility maxSpeed 9.7719222358762
scalar RSUExampleScenario.node[26].veinsmobility totalDistance 716.78724851001
scalar RSUExampleScenario.node[26].veinsmobility totalCO2Emission 181.60013965971
scalar RSUExampleScenario.node[27].appl generatedWSMs 1
scalar RSUExampleScenario.node[27].appl receivedWSMs 41
scalar RSUExampleScenario.node[27].appl generatedBSMs 749
scalar RSUExampleScenario.node[27].appl receivedBSMs 32912
scalar RSUExampleScenario.node[27].appl generatedWSAs 0
scalar RSUExampleScenario.node[27].appl receivedWSAs 0
scalar RSUExampleScenario.node[27].nic.phy80211p busyTime 0.047887850467278
scalar RSUExampleScenario.node[27].nic.mac1609_4 ReceivedUnicastPackets 0
scalar RSUExampleScenario.node[27].nic.mac1609_4 ReceivedBroadcasts 32953
scalar RSUExampleScenario.node[27].nic.mac1609_4 SentPackets 750
scalar RSUExampleScenario.node[27].nic.mac1609_4 SentAcknowledgements 0
scalar RSUExampleScenario.node[27].nic.mac1609_4 RetriesExceeded 0
scalar RSUExampleScenario.node[27].nic.mac1609_4 SNIRLostPackets 1484
scalar RSUExampleScenario.node[27].nic.mac1609_4 RXTXLostPackets 0
scalar RSUExampleScenario.node[27].nic.mac1609_4 TotalLostPackets 1484
scalar RSUExampleScenario.node[27].nic.mac1609_4 DroppedPacketsInMac 0
scalar RSUExampleScenario.node[27].nic.mac1609_4 TooLittleTime 0
scalar RSUExampleScenario.node[27].nic.mac1609_4 TimesIntoBackoff 751
scalar RSUExampleScenario.node[27].nic.mac1609_4 SlotsBackoff 1105
scalar RSUExampleScenario.node[27].nic.mac1609_4 NumInternalContention 0
scalar RSUExampleScenario.node[27].nic.mac1609_4 totalBusyTime 3.633959021534
scalar RSUExampleScenario.node[27].nic.mac1609_4 retriesExceeded:count 0
attr source org_car2x_veins_modules_mac_sigRetriesExceeded
scalar RSUExampleScenario.node[27].nic.mac1609_4 sentAcks:count 0
attr source org_car2x_veins_modules_mac_sigSentAck
scalar RSUExampleScenario.node[27].nic.mac1609_4 sentPackets:count 750
attr source org_car2x_veins_modules_mac_sigSentPacket
scalar RSUExampleScenario.node[27].nic.mac1609_4 collisions:count 0
attr source org_car2x_veins_modules_mac_sigCollision
scalar RSUExampleScenario.node[27].nic.mac1609_4 channelBusy:timeavg 0.048518485394982
attr source org_car2x_veins_modules_mac_sigChannelBusy
scalar RSUExampleScenario.node[27].veinsmobility startTime 45.1
scalar RSUExampleScenario.node[27].veinsmobility totalTime 74.9
scalar RSUExampleScenario.node[27].veinsmobility stopTime 120
scalar RSUExampleScenario.node[27].veinsmobility minSpeed 5.3753084280569
scalar RSUExampleScenario.node[27].veinsmobility maxSpeed 10.170677638969
scalar RSUExampleScenario.node[27].veinsmobility totalDistance 542.64904048416
scalar RSUExampleScenario.node[27].veinsmobility totalCO2Emission 155.62841904375
scalar RSUExampleScenario.node[28].appl generatedWSMs 1
scalar RSUExampleScenario.node[28].appl receivedWSMs 41
scalar RSUExampleScenario.node[28].appl generatedBSMs 719
scalar RSUExampleScenario.node[28].appl receivedBSMs 32235
scalar RSUExampleScenario.node[28].appl generatedWSAs 0
scalar RSUExampleScenario.node[28].appl receivedWSAs 0
scalar RSUExampleScenario.node[28].nic.phy80211p busyTime 0.048714325452006
scalar RSUExampleScenario.node[28].nic.mac1609_4 ReceivedUnicastPackets 0
scalar RSUExampleScenario.node[28].nic.mac1609_4 ReceivedBroadcasts 32276
scalar RSUExampleScenario.node[28].nic.mac1609_4 SentPackets 720
scalar RSUExampleScenario.node[28].nic.mac1609_4 SentAcknowledgements 0
scalar RSUExampleScenario.node[28].nic.mac1609_4 RetriesExceeded 0
scalar RSUExampleScenario.node[28].nic.mac1609_4 SNIRLostPackets 1351
scalar RSUExampleScenario.node[28].nic.mac1609_4 RXTXLostPackets 0
scalar RSUExampleScenario.node[28].nic.mac1609_4 TotalLostPackets 1351
scalar RSUExampleScenario.node[28].nic.mac1609_4 DroppedPacketsInMac 0
scalar RSUExampleScenario.node[28].nic.mac1609_4 TooLittleTime 0
scalar RSUExampleScenario.node[28].nic.mac1609_4 TimesIntoBackoff 721
scalar RSUExampleScenario.node[28].nic.mac1609_4 SlotsBackoff 1073
scalar RSUExampleScenario.node[28].nic.mac1609_4 NumInternalContention 0
scalar RSUExampleScenario.node[28].nic.mac1609_4 totalBusyTime 3.546568
scalar RSUExampleScenario.node[28].nic.mac1609_4 retriesExceeded:count 0
attr source org_car2x_veins_modules_mac_sigRetriesExceeded
scalar RSUExampleScenario.node[28].nic.mac1609_4 sentAcks:count 0
attr source org_car2x_veins_modules_mac_sigSentAck
scalar RSUExampleScenario.node[28].nic.mac1609_4 sentPackets:count 720
attr source org_car2x_veins_modules_mac_sigSentPacket
scalar RSUExampleScenario.node[28].nic.mac1609_4 collisions:count 0
attr source org_car2x_veins_modules_mac_sigCollision
scalar RSUExampleScenario.node[28].nic.mac1609_4 channelBusy:timeavg 0.049327449034023
attr source org_car2x_veins_modules_mac_sigChannelBusy
scalar RSUExampleScenario.node[28].veinsmobility startTime 48.1
scalar RSUExampleScenario.node[28].veinsmobility totalTime 71.9
scalar RSUExampleScenario.node[28].veinsmobility stopTime 120
scalar RSUExampleScenario.node[28].veinsmobility minSpeed 5.3411700902581
scalar RSUExampleScenario.node[28].veinsmobility maxSpeed 10.338960380402
scalar RSUExampleScenario.node[28].veinsmobility totalDistance 527.31151373685
scalar RSUExampleScenario.node[28].veinsmobility totalCO2Emission 150.1656502136
scalar RSUExampleScenario.node[29].appl generatedWSMs 1
scalar RSUExampleScenario.node[29].appl receivedWSMs 40
scalar RSUExampleScenario.node[29].appl generatedBSMs 719
scalar RSUExampleScenario.node[29].appl receivedBSMs 30167
scalar RSUExampleScenario.node[29].appl generatedWSAs 0
scalar RSUExampleScenario.node[29].appl receivedWSAs 0
scalar RSUExampleScenario.node[29].nic.phy80211p busyTime 0.048714325452006
scalar RSUExampleScenario.node[29].nic.mac1609_4 ReceivedUnicastPackets 0
scalar RSUExampleScenario.node[29].nic.mac1609_4 ReceivedBroadcasts 30207
scalar RSUExampleScenario.node[29].nic.mac1609_4 SentPackets 720
scalar RSUExampleScenario.node[29].nic.mac1609_4 SentAcknowledgements 0
scalar RSUExampleScenario.node[29].nic.mac1609_4 RetriesExceeded 0
scalar RSUExampleScenario.node[29].nic.mac1609_4 SNIRLostPackets 3420
scalar RSUExampleScenario.node[29].nic.mac1609_4 RXTXLostPackets 0
scalar RSUExampleScenario.node[29].nic.mac1609_4 TotalLostPackets 3420
scalar RSUExampleScenario.node[29].nic.mac1609_4 DroppedPacketsInMac 0
scalar RSUExampleScenario.node[29].nic.mac1609_4 TooLittleTime 0
scalar RSUExampleScenario.node[29].nic.mac1609_4 TimesIntoBackoff 720
scalar RSUExampleScenario.node[29].nic.mac1609_4 SlotsBackoff 1148
scalar RSUExampleScenario.node[29].nic.mac1609_4 NumInternalContention 0
scalar RSUExampleScenario.node[29].nic.mac1609_4 totalBusyTime 3.546568
scalar RSUExampleScenario.node[29].nic.mac1609_4 retriesExceeded:count 0
attr source org_car2x_veins_modules_mac_sigRetriesExceeded
scalar RSUExampleScenario.node[29].nic.mac1609_4 sentAcks:count 0
attr source org_car2x_veins_modules_mac_sigSentAck
scalar RSUExampleScenario.node[29].nic.mac1609_4 sentPackets:count 720
attr source org_car2x_veins_modules_mac_sigSentPacket
scalar RSUExampleScenario.node[29].nic.mac1609_4 collisions:count 0
attr source org_car2x_veins_modules_mac_sigCollision
scalar RSUExampleScenario.node[29].nic.mac1609_4 channelBusy:timeavg 0.049327441016651
attr source org_car2x_veins_modules_mac_sigChannelBusy
scalar RSUExampleScenario.node[29].veinsmobility startTime 48.1
scalar RSUExampleScenario.node[29].veinsmobility totalTime 71.9
scalar RSUExampleScenario.node[29].veinsmobility stopTime 120
scalar RSUExampleScenario.node[29].veinsmobility minSpeed 5.6399734989864
scalar RSUExampleScenario.node[29].veinsmobility maxSpeed 10.535872732203
scalar RSUExampleScenario.node[29].veinsmobility totalDistance 699.45750144361
scalar RSUExampleScenario.node[29].veinsmobility totalCO2Emission 181.76355227147
scalar RSUExampleScenario.node[30].appl generatedWSMs 1
scalar RSUExampleScenario.node[30].appl receivedWSMs 41
scalar RSUExampleScenario.node[30].appl generatedBSMs 689
scalar RSUExampleScenario.node[30].appl receivedBSMs 31486
scalar RSUExampleScenario.node[30].appl generatedWSAs 0
scalar RSUExampleScenario.node[30].appl receivedWSAs 0
scalar RSUExampleScenario.node[30].nic.phy80211p busyTime 0.049522206095782
scalar RSUExampleScenario.node[30].nic.mac1609_4 ReceivedUnicastPackets 0
scalar RSUExampleScenario.node[30].nic.mac1609_4 ReceivedBroadcasts 31527
scalar RSUExampleScenario.node[30].nic.mac1609_4 SentPackets 690
scalar RSUExampleScenario.node[30].nic.mac1609_4 SentAcknowledgements 0
scalar RSUExampleScenario.node[30].nic.mac1609_4 RetriesExceeded 0
scalar RSUExampleScenario.node[30].nic.mac1609_4 SNIRLostPackets 1230
scalar RSUExampleScenario.node[30].nic.mac1609_4 RXTXLostPackets 0
scalar RSUExampleScenario.node[30].nic.mac1609_4 TotalLostPackets 1230
scalar RSUExampleScenario.node[30].nic.mac1609_4 DroppedPacketsInMac 0
scalar RSUExampleScenario.node[30].nic.mac1609_4 TooLittleTime 0
scalar RSUExampleScenario.node[30].nic.mac1609_4 TimesIntoBackoff 690
scalar RSUExampleScenario.node[30].nic.mac1609_4 SlotsBackoff 1025
scalar RSUExampleScenario.node[30].nic.mac1609_4 NumInternalContention 0
scalar RSUExampleScenario.node[30].nic.mac1609_4 totalBusyTime 3.452938
scalar RSUExampleScenario.node[30].nic.mac1609_4 retriesExceeded:count 0
attr source org_car2x_veins_modules_mac_sigRetriesExceeded
scalar RSUExampleScenario.node[30].nic.mac1609_4 sentAcks:count 0
attr source org_car2x_veins_modules_mac_sigSentAck
scalar RSUExampleScenario.node[30].nic.mac1609_4 sentPackets:count 690
attr source org_car2x_veins_modules_mac_sigSentPacket
scalar RSUExampleScenario.node[30].nic.mac1609_4 collisions:count 0
attr source org_car2x_veins_modules_mac_sigCollision
scalar RSUExampleScenario.node[30].nic.mac1609_4 channelBusy:timeavg 0.050116308216841
attr source org_car2x_veins_modules_mac_sigChannelBusy
scalar RSUExampleScenario.node[30].veinsmobility startTime 51.1
scalar RSUExampleScenario.node[30].veinsmobility totalTime 68.9
scalar RSUExampleScenario.node[30].veinsmobility stopTime 120
scalar RSUExampleScenario.node[30].veinsmobility minSpeed 5.3559723492557
scalar RSUExampleScenario.node[30].veinsmobility maxSpeed 11.509851346357
scalar RSUExampleScenario.node[30].veinsmobility totalDistance 512.10743080181
[...]
scalar RSUExampleScenario.node[62].appl generatedWSAs 0
scalar RSUExampleScenario.node[62].appl receivedWSAs 0
scalar RSUExampleScenario.node[62].nic.phy80211p busyTime 0.059516778523487
scalar RSUExampleScenario.node[62].nic.mac1609_4 ReceivedUnicastPackets 0
scalar RSUExampleScenario.node[62].nic.mac1609_4 ReceivedBroadcasts 7699
scalar RSUExampleScenario.node[62].nic.mac1609_4 SentPackets 150
scalar RSUExampleScenario.node[62].nic.mac1609_4 SentAcknowledgements 0
scalar RSUExampleScenario.node[62].nic.mac1609_4 RetriesExceeded 0
scalar RSUExampleScenario.node[62].nic.mac1609_4 SNIRLostPackets 822
scalar RSUExampleScenario.node[62].nic.mac1609_4 RXTXLostPackets 0
scalar RSUExampleScenario.node[62].nic.mac1609_4 TotalLostPackets 822
scalar RSUExampleScenario.node[62].nic.mac1609_4 DroppedPacketsInMac 0
scalar RSUExampleScenario.node[62].nic.mac1609_4 TooLittleTime 0
scalar RSUExampleScenario.node[62].nic.mac1609_4 TimesIntoBackoff 150
scalar RSUExampleScenario.node[62].nic.mac1609_4 SlotsBackoff 231
scalar RSUExampleScenario.node[62].nic.mac1609_4 NumInternalContention 0
scalar RSUExampleScenario.node[62].nic.mac1609_4 totalBusyTime 0.892382
scalar RSUExampleScenario.node[62].nic.mac1609_4 retriesExceeded:count 0
attr source org_car2x_veins_modules_mac_sigRetriesExceeded
scalar RSUExampleScenario.node[62].nic.mac1609_4 sentAcks:count 0
attr source org_car2x_veins_modules_mac_sigSentAck
scalar RSUExampleScenario.node[62].nic.mac1609_4 sentPackets:count 150
attr source org_car2x_veins_modules_mac_sigSentPacket
scalar RSUExampleScenario.node[62].nic.mac1609_4 collisions:count 0
attr source org_car2x_veins_modules_mac_sigCollision
scalar RSUExampleScenario.node[62].nic.mac1609_4 channelBusy:timeavg 0.059896510029192
attr source org_car2x_veins_modules_mac_sigChannelBusy
scalar RSUExampleScenario.node[62].veinsmobility startTime 105.1
scalar RSUExampleScenario.node[62].veinsmobility totalTime 14.9
scalar RSUExampleScenario.node[62].veinsmobility stopTime 120
scalar RSUExampleScenario.node[62].veinsmobility minSpeed 4.0130457050982
scalar RSUExampleScenario.node[62].veinsmobility maxSpeed 9.6403285584746
scalar RSUExampleScenario.node[62].veinsmobility totalDistance 111.11684876465
scalar RSUExampleScenario.node[62].veinsmobility totalCO2Emission 27.405617231727
scalar RSUExampleScenario.node[63].appl generatedWSMs 1
scalar RSUExampleScenario.node[63].appl receivedWSMs 3
scalar RSUExampleScenario.node[63].appl generatedBSMs 119
scalar RSUExampleScenario.node[63].appl receivedBSMs 6088
scalar RSUExampleScenario.node[63].appl generatedWSAs 0
scalar RSUExampleScenario.node[63].appl receivedWSAs 0
scalar RSUExampleScenario.node[63].nic.phy80211p busyTime 0.059819159663863
scalar RSUExampleScenario.node[63].nic.mac1609_4 ReceivedUnicastPackets 0
scalar RSUExampleScenario.node[63].nic.mac1609_4 ReceivedBroadcasts 6091
scalar RSUExampleScenario.node[63].nic.mac1609_4 SentPackets 120
scalar RSUExampleScenario.node[63].nic.mac1609_4 SentAcknowledgements 0
scalar RSUExampleScenario.node[63].nic.mac1609_4 RetriesExceeded 0
scalar RSUExampleScenario.node[63].nic.mac1609_4 SNIRLostPackets 749
scalar RSUExampleScenario.node[63].nic.mac1609_4 RXTXLostPackets 0
scalar RSUExampleScenario.node[63].nic.mac1609_4 TotalLostPackets 749
scalar RSUExampleScenario.node[63].nic.mac1609_4 DroppedPacketsInMac 0
scalar RSUExampleScenario.node[63].nic.mac1609_4 TooLittleTime 0
scalar RSUExampleScenario.node[63].nic.mac1609_4 TimesIntoBackoff 120
scalar RSUExampleScenario.node[63].nic.mac1609_4 SlotsBackoff 187
scalar RSUExampleScenario.node[63].nic.mac1609_4 NumInternalContention 0
scalar RSUExampleScenario.node[63].nic.mac1609_4 totalBusyTime 0.716568
scalar RSUExampleScenario.node[63].nic.mac1609_4 retriesExceeded:count 0
attr source org_car2x_veins_modules_mac_sigRetriesExceeded
scalar RSUExampleScenario.node[63].nic.mac1609_4 sentAcks:count 0
attr source org_car2x_veins_modules_mac_sigSentAck
scalar RSUExampleScenario.node[63].nic.mac1609_4 sentPackets:count 120
attr source org_car2x_veins_modules_mac_sigSentPacket
scalar RSUExampleScenario.node[63].nic.mac1609_4 collisions:count 0
attr source org_car2x_veins_modules_mac_sigCollision
scalar RSUExampleScenario.node[63].nic.mac1609_4 channelBusy:timeavg 0.060222180962098
attr source org_car2x_veins_modules_mac_sigChannelBusy
scalar RSUExampleScenario.node[63].veinsmobility startTime 108.1
scalar RSUExampleScenario.node[63].veinsmobility totalTime 11.9
scalar RSUExampleScenario.node[63].veinsmobility stopTime 120
scalar RSUExampleScenario.node[63].veinsmobility minSpeed 4.9273040538669
scalar RSUExampleScenario.node[63].veinsmobility maxSpeed 9.8367093158598
scalar RSUExampleScenario.node[63].veinsmobility totalDistance 97.418984896385
scalar RSUExampleScenario.node[63].veinsmobility totalCO2Emission 22.227876258276
scalar RSUExampleScenario.node[64].appl generatedWSMs 1
scalar RSUExampleScenario.node[64].appl receivedWSMs 3
scalar RSUExampleScenario.node[64].appl generatedBSMs 119
scalar RSUExampleScenario.node[64].appl receivedBSMs 6276
scalar RSUExampleScenario.node[64].appl generatedWSAs 0
scalar RSUExampleScenario.node[64].appl receivedWSAs 0
scalar RSUExampleScenario.node[64].nic.phy80211p busyTime 0.059819159663863
scalar RSUExampleScenario.node[64].nic.mac1609_4 ReceivedUnicastPackets 0
scalar RSUExampleScenario.node[64].nic.mac1609_4 ReceivedBroadcasts 6279
scalar RSUExampleScenario.node[64].nic.mac1609_4 SentPackets 120
scalar RSUExampleScenario.node[64].nic.mac1609_4 SentAcknowledgements 0
scalar RSUExampleScenario.node[64].nic.mac1609_4 RetriesExceeded 0
scalar RSUExampleScenario.node[64].nic.mac1609_4 SNIRLostPackets 561
scalar RSUExampleScenario.node[64].nic.mac1609_4 RXTXLostPackets 0
scalar RSUExampleScenario.node[64].nic.mac1609_4 TotalLostPackets 561
scalar RSUExampleScenario.node[64].nic.mac1609_4 DroppedPacketsInMac 0
scalar RSUExampleScenario.node[64].nic.mac1609_4 TooLittleTime 0
scalar RSUExampleScenario.node[64].nic.mac1609_4 TimesIntoBackoff 240
scalar RSUExampleScenario.node[64].nic.mac1609_4 SlotsBackoff 341
scalar RSUExampleScenario.node[64].nic.mac1609_4 NumInternalContention 0
scalar RSUExampleScenario.node[64].nic.mac1609_4 totalBusyTime 0.716568
scalar RSUExampleScenario.node[64].nic.mac1609_4 retriesExceeded:count 0
attr source org_car2x_veins_modules_mac_sigRetriesExceeded
scalar RSUExampleScenario.node[64].nic.mac1609_4 sentAcks:count 0
attr source org_car2x_veins_modules_mac_sigSentAck
scalar RSUExampleScenario.node[64].nic.mac1609_4 sentPackets:count 120
attr source org_car2x_veins_modules_mac_sigSentPacket
scalar RSUExampleScenario.node[64].nic.mac1609_4 collisions:count 0
attr source org_car2x_veins_modules_mac_sigCollision
scalar RSUExampleScenario.node[64].nic.mac1609_4 channelBusy:timeavg 0.060222200307476
attr source org_car2x_veins_modules_mac_sigChannelBusy
scalar RSUExampleScenario.node[64].veinsmobility startTime 108.1
scalar RSUExampleScenario.node[64].veinsmobility totalTime 11.9
scalar RSUExampleScenario.node[64].veinsmobility stopTime 120
scalar RSUExampleScenario.node[64].veinsmobility minSpeed 10.813532420606
scalar RSUExampleScenario.node[64].veinsmobility maxSpeed 11.792556705745
scalar RSUExampleScenario.node[64].veinsmobility totalDistance 137.91956349194
scalar RSUExampleScenario.node[64].veinsmobility totalCO2Emission 30.186684752817
scalar RSUExampleScenario.node[65].appl generatedWSMs 0
scalar RSUExampleScenario.node[65].appl receivedWSMs 0
scalar RSUExampleScenario.node[65].appl generatedBSMs 89
scalar RSUExampleScenario.node[65].appl receivedBSMs 4442
scalar RSUExampleScenario.node[65].appl generatedWSAs 0
scalar RSUExampleScenario.node[65].appl receivedWSAs 0
scalar RSUExampleScenario.node[65].nic.phy80211p busyTime 0.059700674157301
scalar RSUExampleScenario.node[65].nic.mac1609_4 ReceivedUnicastPackets 0
scalar RSUExampleScenario.node[65].nic.mac1609_4 ReceivedBroadcasts 4442
scalar RSUExampleScenario.node[65].nic.mac1609_4 SentPackets 89
scalar RSUExampleScenario.node[65].nic.mac1609_4 SentAcknowledgements 0
scalar RSUExampleScenario.node[65].nic.mac1609_4 RetriesExceeded 0
scalar RSUExampleScenario.node[65].nic.mac1609_4 SNIRLostPackets 666
scalar RSUExampleScenario.node[65].nic.mac1609_4 RXTXLostPackets 0
scalar RSUExampleScenario.node[65].nic.mac1609_4 TotalLostPackets 666
scalar RSUExampleScenario.node[65].nic.mac1609_4 DroppedPacketsInMac 0
scalar RSUExampleScenario.node[65].nic.mac1609_4 TooLittleTime 0
scalar RSUExampleScenario.node[65].nic.mac1609_4 TimesIntoBackoff 89
scalar RSUExampleScenario.node[65].nic.mac1609_4 SlotsBackoff 132
scalar RSUExampleScenario.node[65].nic.mac1609_4 NumInternalContention 0
scalar RSUExampleScenario.node[65].nic.mac1609_4 totalBusyTime 0.534545
scalar RSUExampleScenario.node[65].nic.mac1609_4 retriesExceeded:count 0
attr source org_car2x_veins_modules_mac_sigRetriesExceeded
scalar RSUExampleScenario.node[65].nic.mac1609_4 sentAcks:count 0
attr source org_car2x_veins_modules_mac_sigSentAck
scalar RSUExampleScenario.node[65].nic.mac1609_4 sentPackets:count 89
attr source org_car2x_veins_modules_mac_sigSentPacket
scalar RSUExampleScenario.node[65].nic.mac1609_4 collisions:count 0
attr source org_car2x_veins_modules_mac_sigCollision
scalar RSUExampleScenario.node[65].nic.mac1609_4 channelBusy:timeavg 0.060069763969211
attr source org_car2x_veins_modules_mac_sigChannelBusy
scalar RSUExampleScenario.node[65].veinsmobility startTime 111.1
scalar RSUExampleScenario.node[65].veinsmobility totalTime 8.9
scalar RSUExampleScenario.node[65].veinsmobility stopTime 120
scalar RSUExampleScenario.node[65].veinsmobility minSpeed 6.3515084389023
scalar RSUExampleScenario.node[65].veinsmobility maxSpeed 10.194502735006
scalar RSUExampleScenario.node[65].veinsmobility totalDistance 81.334635533808
scalar RSUExampleScenario.node[65].veinsmobility totalCO2Emission 18.188983323547
scalar RSUExampleScenario.node[66].appl generatedWSMs 0
scalar RSUExampleScenario.node[66].appl receivedWSMs 0
scalar RSUExampleScenario.node[66].appl generatedBSMs 79
scalar RSUExampleScenario.node[66].appl receivedBSMs 3866
scalar RSUExampleScenario.node[66].appl generatedWSAs 0
scalar RSUExampleScenario.node[66].appl receivedWSAs 0
scalar RSUExampleScenario.node[66].nic.phy80211p busyTime 0.059661772151896
scalar RSUExampleScenario.node[66].nic.mac1609_4 ReceivedUnicastPackets 0
scalar RSUExampleScenario.node[66].nic.mac1609_4 ReceivedBroadcasts 3866
scalar RSUExampleScenario.node[66].nic.mac1609_4 SentPackets 79
scalar RSUExampleScenario.node[66].nic.mac1609_4 SentAcknowledgements 0
scalar RSUExampleScenario.node[66].nic.mac1609_4 RetriesExceeded 0
scalar RSUExampleScenario.node[66].nic.mac1609_4 SNIRLostPackets 665
scalar RSUExampleScenario.node[66].nic.mac1609_4 RXTXLostPackets 0
scalar RSUExampleScenario.node[66].nic.mac1609_4 TotalLostPackets 665
scalar RSUExampleScenario.node[66].nic.mac1609_4 DroppedPacketsInMac 0
scalar RSUExampleScenario.node[66].nic.mac1609_4 TooLittleTime 0
scalar RSUExampleScenario.node[66].nic.mac1609_4 TimesIntoBackoff 79
scalar RSUExampleScenario.node[66].nic.mac1609_4 SlotsBackoff 100
scalar RSUExampleScenario.node[66].nic.mac1609_4 NumInternalContention 0
scalar RSUExampleScenario.node[66].nic.mac1609_4 totalBusyTime 0.474423
scalar RSUExampleScenario.node[66].nic.mac1609_4 retriesExceeded:count 0
attr source org_car2x_veins_modules_mac_sigRetriesExceeded
scalar RSUExampleScenario.node[66].nic.mac1609_4 sentAcks:count 0
attr source org_car2x_veins_modules_mac_sigSentAck
scalar RSUExampleScenario.node[66].nic.mac1609_4 sentPackets:count 79
attr source org_car2x_veins_modules_mac_sigSentPacket
scalar RSUExampleScenario.node[66].nic.mac1609_4 collisions:count 0
attr source org_car2x_veins_modules_mac_sigCollision
scalar RSUExampleScenario.node[66].nic.mac1609_4 channelBusy:timeavg 0.060063156850884
attr source org_car2x_veins_modules_mac_sigChannelBusy
scalar RSUExampleScenario.node[66].veinsmobility startTime 112.1
scalar RSUExampleScenario.node[66].veinsmobility totalTime 7.9
scalar RSUExampleScenario.node[66].veinsmobility stopTime 120
scalar RSUExampleScenario.node[66].veinsmobility minSpeed 8.0173266096831
scalar RSUExampleScenario.node[66].veinsmobility maxSpeed 8.2622350940916
scalar RSUExampleScenario.node[66].veinsmobility totalDistance 64.251899767803
scalar RSUExampleScenario.node[66].veinsmobility totalCO2Emission 16.830733703124
scalar RSUExampleScenario.node[67].appl generatedWSMs 0
scalar RSUExampleScenario.node[67].appl receivedWSMs 0
scalar RSUExampleScenario.node[67].appl generatedBSMs 59
scalar RSUExampleScenario.node[67].appl receivedBSMs 2848
scalar RSUExampleScenario.node[67].appl generatedWSAs 0
scalar RSUExampleScenario.node[67].appl receivedWSAs 0
scalar RSUExampleScenario.node[67].nic.phy80211p busyTime 0.059844067796608
scalar RSUExampleScenario.node[67].nic.mac1609_4 ReceivedUnicastPackets 0
scalar RSUExampleScenario.node[67].nic.mac1609_4 ReceivedBroadcasts 2848
scalar RSUExampleScenario.node[67].nic.mac1609_4 SentPackets 59
scalar RSUExampleScenario.node[67].nic.mac1609_4 SentAcknowledgements 0
scalar RSUExampleScenario.node[67].nic.mac1609_4 RetriesExceeded 0
scalar RSUExampleScenario.node[67].nic.mac1609_4 SNIRLostPackets 546
scalar RSUExampleScenario.node[67].nic.mac1609_4 RXTXLostPackets 0
scalar RSUExampleScenario.node[67].nic.mac1609_4 TotalLostPackets 546
scalar RSUExampleScenario.node[67].nic.mac1609_4 DroppedPacketsInMac 0
scalar RSUExampleScenario.node[67].nic.mac1609_4 TooLittleTime 0
scalar RSUExampleScenario.node[67].nic.mac1609_4 TimesIntoBackoff 59
scalar RSUExampleScenario.node[67].nic.mac1609_4 SlotsBackoff 87
scalar RSUExampleScenario.node[67].nic.mac1609_4 NumInternalContention 0
scalar RSUExampleScenario.node[67].nic.mac1609_4 totalBusyTime 0.355427
scalar RSUExampleScenario.node[67].nic.mac1609_4 retriesExceeded:count 0
attr source org_car2x_veins_modules_mac_sigRetriesExceeded
scalar RSUExampleScenario.node[67].nic.mac1609_4 sentAcks:count 0
attr source org_car2x_veins_modules_mac_sigSentAck
scalar RSUExampleScenario.node[67].nic.mac1609_4 sentPackets:count 59
attr source org_car2x_veins_modules_mac_sigSentPacket
scalar RSUExampleScenario.node[67].nic.mac1609_4 collisions:count 0
attr source org_car2x_veins_modules_mac_sigCollision
scalar RSUExampleScenario.node[67].nic.mac1609_4 channelBusy:timeavg 0.060254715514235
attr source org_car2x_veins_modules_mac_sigChannelBusy
scalar RSUExampleScenario.node[67].veinsmobility startTime 114.1
scalar RSUExampleScenario.node[67].veinsmobility totalTime 5.9
scalar RSUExampleScenario.node[67].veinsmobility stopTime 120
scalar RSUExampleScenario.node[67].veinsmobility minSpeed 9.1731287154783
scalar RSUExampleScenario.node[67].veinsmobility maxSpeed 10.036821610944
scalar RSUExampleScenario.node[67].veinsmobility totalDistance 58.290626744013
scalar RSUExampleScenario.node[67].veinsmobility totalCO2Emission 14.067554996331
scalar RSUExampleScenario.node[68].appl generatedWSMs 0
scalar RSUExampleScenario.node[68].appl receivedWSMs 0
scalar RSUExampleScenario.node[68].appl generatedBSMs 39
scalar RSUExampleScenario.node[68].appl receivedBSMs 1853
scalar RSUExampleScenario.node[68].appl generatedWSAs 0
scalar RSUExampleScenario.node[68].appl receivedWSAs 0
scalar RSUExampleScenario.node[68].nic.phy80211p busyTime 0.060133333333332
scalar RSUExampleScenario.node[68].nic.mac1609_4 ReceivedUnicastPackets 0
scalar RSUExampleScenario.node[68].nic.mac1609_4 ReceivedBroadcasts 1853
scalar RSUExampleScenario.node[68].nic.mac1609_4 SentPackets 39
scalar RSUExampleScenario.node[68].nic.mac1609_4 SentAcknowledgements 0
scalar RSUExampleScenario.node[68].nic.mac1609_4 RetriesExceeded 0
scalar RSUExampleScenario.node[68].nic.mac1609_4 SNIRLostPackets 401
scalar RSUExampleScenario.node[68].nic.mac1609_4 RXTXLostPackets 0
scalar RSUExampleScenario.node[68].nic.mac1609_4 TotalLostPackets 401
scalar RSUExampleScenario.node[68].nic.mac1609_4 DroppedPacketsInMac 0
scalar RSUExampleScenario.node[68].nic.mac1609_4 TooLittleTime 0
scalar RSUExampleScenario.node[68].nic.mac1609_4 TimesIntoBackoff 39
scalar RSUExampleScenario.node[68].nic.mac1609_4 SlotsBackoff 55
scalar RSUExampleScenario.node[68].nic.mac1609_4 NumInternalContention 0
scalar RSUExampleScenario.node[68].nic.mac1609_4 totalBusyTime 0.235703
scalar RSUExampleScenario.node[68].nic.mac1609_4 retriesExceeded:count 0
attr source org_car2x_veins_modules_mac_sigRetriesExceeded
scalar RSUExampleScenario.node[68].nic.mac1609_4 sentAcks:count 0
attr source org_car2x_veins_modules_mac_sigSentAck
scalar RSUExampleScenario.node[68].nic.mac1609_4 sentPackets:count 39
attr source org_car2x_veins_modules_mac_sigSentPacket
scalar RSUExampleScenario.node[68].nic.mac1609_4 collisions:count 0
attr source org_car2x_veins_modules_mac_sigCollision
scalar RSUExampleScenario.node[68].nic.mac1609_4 channelBusy:timeavg 0.060456116613076
attr source org_car2x_veins_modules_mac_sigChannelBusy
scalar RSUExampleScenario.node[68].veinsmobility startTime 116.1
scalar RSUExampleScenario.node[68].veinsmobility totalTime 3.9
scalar RSUExampleScenario.node[68].veinsmobility stopTime 120
scalar RSUExampleScenario.node[68].veinsmobility minSpeed 9.89878995979
scalar RSUExampleScenario.node[68].veinsmobility maxSpeed 10.144059075593
scalar RSUExampleScenario.node[68].veinsmobility totalDistance 39.133813004605
scalar RSUExampleScenario.node[68].veinsmobility totalCO2Emission 9.4785683688032
scalar RSUExampleScenario.node[69].appl generatedWSMs 0
scalar RSUExampleScenario.node[69].appl receivedWSMs 0
scalar RSUExampleScenario.node[69].appl generatedBSMs 29
scalar RSUExampleScenario.node[69].appl receivedBSMs 1366
scalar RSUExampleScenario.node[69].appl generatedWSAs 0
scalar RSUExampleScenario.node[69].appl receivedWSAs 0
scalar RSUExampleScenario.node[69].nic.phy80211p busyTime 0.060068965517242
scalar RSUExampleScenario.node[69].nic.mac1609_4 ReceivedUnicastPackets 0
scalar RSUExampleScenario.node[69].nic.mac1609_4 ReceivedBroadcasts 1366
scalar RSUExampleScenario.node[69].nic.mac1609_4 SentPackets 29
scalar RSUExampleScenario.node[69].nic.mac1609_4 SentAcknowledgements 0
scalar RSUExampleScenario.node[69].nic.mac1609_4 RetriesExceeded 0
scalar RSUExampleScenario.node[69].nic.mac1609_4 SNIRLostPackets 308
scalar RSUExampleScenario.node[69].nic.mac1609_4 RXTXLostPackets 0
scalar RSUExampleScenario.node[69].nic.mac1609_4 TotalLostPackets 308
scalar RSUExampleScenario.node[69].nic.mac1609_4 DroppedPacketsInMac 0
scalar RSUExampleScenario.node[69].nic.mac1609_4 TooLittleTime 0
scalar RSUExampleScenario.node[69].nic.mac1609_4 TimesIntoBackoff 29
scalar RSUExampleScenario.node[69].nic.mac1609_4 SlotsBackoff 38
scalar RSUExampleScenario.node[69].nic.mac1609_4 NumInternalContention 0
scalar RSUExampleScenario.node[69].nic.mac1609_4 totalBusyTime 0.175165
scalar RSUExampleScenario.node[69].nic.mac1609_4 retriesExceeded:count 0
attr source org_car2x_veins_modules_mac_sigRetriesExceeded
scalar RSUExampleScenario.node[69].nic.mac1609_4 sentAcks:count 0
attr source org_car2x_veins_modules_mac_sigSentAck
scalar RSUExampleScenario.node[69].nic.mac1609_4 sentPackets:count 29
attr source org_car2x_veins_modules_mac_sigSentPacket
scalar RSUExampleScenario.node[69].nic.mac1609_4 collisions:count 0
attr source org_car2x_veins_modules_mac_sigCollision
scalar RSUExampleScenario.node[69].nic.mac1609_4 channelBusy:timeavg 0.060427836317931
attr source org_car2x_veins_modules_mac_sigChannelBusy
scalar RSUExampleScenario.node[69].veinsmobility startTime 117.1
scalar RSUExampleScenario.node[69].veinsmobility totalTime 2.9
scalar RSUExampleScenario.node[69].veinsmobility stopTime 120
scalar RSUExampleScenario.node[69].veinsmobility minSpeed 10.083310838181
scalar RSUExampleScenario.node[69].veinsmobility maxSpeed 10.312708236628
scalar RSUExampleScenario.node[69].veinsmobility totalDistance 29.539080261954
scalar RSUExampleScenario.node[69].veinsmobility totalCO2Emission 6.3502320535777

