version 2
run WithBeaconing-0-20251015-15:49:12-4977
attr configname WithBeaconing
attr datetime 20251015-15:49:12
attr experiment WithBeaconing
attr inifile omnetpp.ini
attr iterationvars ""
attr iterationvarsf ""
attr measurement ""
attr network RSUExampleScenario
attr processid 4977
attr repetition 0
attr replication #0
attr resultdir results
attr runnumber 0
attr seedset 210041226
param *.node[*].appl.sendBeacons true
param *.playgroundSizeX 1700m
param *.playgroundSizeY 1700m
param *.playgroundSizeZ 50m
param *.annotations.draw true
param *.manager.updateInterval 0.1s
param *.manager.host "\"localhost\""
param *.manager.port 9999
param *.manager.autoShutdown true
param *.manager.launchConfig "xmldoc(\"simulation_junction.launchd.xml\")"
param *.connectionManager.sendDirect true
param *.connectionManager.maxInterfDist 2600m
param *.connectionManager.drawMaxIntfDist false
param *.**.nic.mac1609_4.useServiceChannel false
param *.**.nic.mac1609_4.txPower 20mW
param *.**.nic.mac1609_4.bitrate 6Mbps
param *.**.nic.phy80211p.minPowerLevel -110dBm
param *.**.nic.phy80211p.useNoiseFloor true
param *.**.nic.phy80211p.noiseFloor -98dBm
param *.**.nic.phy80211p.decider "xmldoc(\"config.xml\")"
param *.**.nic.phy80211p.analogueModels "xmldoc(\"config.xml\")"
param *.**.nic.phy80211p.usePropagationDelay true
param *.**.nic.phy80211p.antenna "xmldoc(\"antenna.xml\", \"/root/Antenna[@id='monopole']\")"
param *.node[*].nic.phy80211p.antennaOffsetY "0 m"
param *.node[*].nic.phy80211p.antennaOffsetZ "1.895 m"
param *.node[*].applType "\"TraCIDemo11p\""
param *.node[*].appl.headerLength "80 bit"
param *.node[*].appl.sendBeacons false
param *.node[*].appl.dataOnSch false
param *.node[*].appl.beaconInterval 0.1s
param **.node[*].appl.dataUserPriority 5
param **.node[*].appl.beaconUserPriority 7
param *.node[*].veinsmobility.x 0
param *.node[*].veinsmobility.y 0
param *.node[*].veinsmobility.z 0
param *.node[*].veinsmobility.setHostSpeed false

scalar RSUExampleScenario.node[0].appl generatedWSMs 1
scalar RSUExampleScenario.node[0].appl receivedWSMs 66
scalar RSUExampleScenario.node[0].appl generatedBSMs 944
scalar RSUExampleScenario.node[0].appl receivedBSMs 34925
scalar RSUExampleScenario.node[0].appl generatedWSAs 0
scalar RSUExampleScenario.node[0].appl receivedWSAs 0
scalar RSUExampleScenario.node[0].nic.phy80211p busyTime 0.043017542372869
scalar RSUExampleScenario.node[0].nic.mac1609_4 ReceivedUnicastPackets 0
scalar RSUExampleScenario.node[0].nic.mac1609_4 ReceivedBroadcasts 34991
scalar RSUExampleScenario.node[0].nic.mac1609_4 SentPackets 945
scalar RSUExampleScenario.node[0].nic.mac1609_4 SentAcknowledgements 0
scalar RSUExampleScenario.node[0].nic.mac1609_4 RetriesExceeded 0
scalar RSUExampleScenario.node[0].nic.mac1609_4 SNIRLostPackets 3956
scalar RSUExampleScenario.node[0].nic.mac1609_4 RXTXLostPackets 0
scalar RSUExampleScenario.node[0].nic.mac1609_4 TotalLostPackets 3956
scalar RSUExampleScenario.node[0].nic.mac1609_4 DroppedPacketsInMac 0
scalar RSUExampleScenario.node[0].nic.mac1609_4 TooLittleTime 0
scalar RSUExampleScenario.node[0].nic.mac1609_4 TimesIntoBackoff 945
scalar RSUExampleScenario.node[0].nic.mac1609_4 SlotsBackoff 1465
scalar RSUExampleScenario.node[0].nic.mac1609_4 NumInternalContention 0
scalar RSUExampleScenario.node[0].nic.mac1609_4 totalBusyTime 4.086113
scalar RSUExampleScenario.node[0].nic.mac1609_4 retriesExceeded:count 0
attr source org_car2x_veins_modules_mac_sigRetriesExceeded
scalar RSUExampleScenario.node[0].nic.mac1609_4 sentAcks:count 0
attr source org_car2x_veins_modules_mac_sigSentAck
scalar RSUExampleScenario.node[0].nic.mac1609_4 sentPackets:count 945
attr source org_car2x_veins_modules_mac_sigSentPacket
scalar RSUExampleScenario.node[0].nic.mac1609_4 collisions:count 0
attr source org_car2x_veins_modules_mac_sigCollision
scalar RSUExampleScenario.node[0].nic.mac1609_4 channelBusy:timeavg 0.043285095338972
attr source org_car2x_veins_modules_mac_sigChannelBusy
scalar RSUExampleScenario.node[0].veinsmobility startTime 0.1
scalar RSUExampleScenario.node[0].veinsmobility totalTime 94.3
scalar RSUExampleScenario.node[0].veinsmobility stopTime 94.5
scalar RSUExampleScenario.node[0].veinsmobility minSpeed 0
scalar RSUExampleScenario.node[0].veinsmobility maxSpeed 11.163062379957
scalar RSUExampleScenario.node[0].veinsmobility totalDistance 746.15815035036
scalar RSUExampleScenario.node[0].veinsmobility totalCO2Emission 206.6883598112
scalar RSUExampleScenario.node[1].appl generatedWSMs 1
scalar RSUExampleScenario.node[1].appl receivedWSMs 69
scalar RSUExampleScenario.node[1].appl generatedBSMs 969
scalar RSUExampleScenario.node[1].appl receivedBSMs 37087
scalar RSUExampleScenario.node[1].appl generatedWSAs 0
scalar RSUExampleScenario.node[1].appl receivedWSAs 0
scalar RSUExampleScenario.node[1].nic.phy80211p busyTime 0.044001073271409
scalar RSUExampleScenario.node[1].nic.mac1609_4 ReceivedUnicastPackets 0
scalar RSUExampleScenario.node[1].nic.mac1609_4 ReceivedBroadcasts 37156
scalar RSUExampleScenario.node[1].nic.mac1609_4 SentPackets 970
scalar RSUExampleScenario.node[1].nic.mac1609_4 SentAcknowledgements 0
scalar RSUExampleScenario.node[1].nic.mac1609_4 RetriesExceeded 0
scalar RSUExampleScenario.node[1].nic.mac1609_4 SNIRLostPackets 3739
scalar RSUExampleScenario.node[1].nic.mac1609_4 RXTXLostPackets 210
scalar RSUExampleScenario.node[1].nic.mac1609_4 TotalLostPackets 3949
scalar RSUExampleScenario.node[1].nic.mac1609_4 DroppedPacketsInMac 0
scalar RSUExampleScenario.node[1].nic.mac1609_4 TooLittleTime 0
scalar RSUExampleScenario.node[1].nic.mac1609_4 TimesIntoBackoff 1169
scalar RSUExampleScenario.node[1].nic.mac1609_4 SlotsBackoff 1707
scalar RSUExampleScenario.node[1].nic.mac1609_4 NumInternalContention 0
scalar RSUExampleScenario.node[1].nic.mac1609_4 totalBusyTime 4.30617
scalar RSUExampleScenario.node[1].nic.mac1609_4 retriesExceeded:count 0
attr source org_car2x_veins_modules_mac_sigRetriesExceeded
scalar RSUExampleScenario.node[1].nic.mac1609_4 sentAcks:count 0
attr source org_car2x_veins_modules_mac_sigSentAck
scalar RSUExampleScenario.node[1].nic.mac1609_4 sentPackets:count 970
attr source org_car2x_veins_modules_mac_sigSentPacket
scalar RSUExampleScenario.node[1].nic.mac1609_4 collisions:count 0
attr source org_car2x_veins_modules_mac_sigCollision
scalar RSUExampleScenario.node[1].nic.mac1609_4 channelBusy:timeavg 0.044439318885445
attr source org_car2x_veins_modules_mac_sigChannelBusy
scalar RSUExampleScenario.node[1].veinsmobility startTime 0.1
scalar RSUExampleScenario.node[1].veinsmobility totalTime 96.8
scalar RSUExampleScenario.node[1].veinsmobility stopTime 97
scalar RSUExampleScenario.node[1].veinsmobility minSpeed 0
scalar RSUExampleScenario.node[1].veinsmobility maxSpeed 10.483112869203
scalar RSUExampleScenario.node[1].veinsmobility totalDistance 748.77818130003
scalar RSUExampleScenario.node[1].veinsmobility totalCO2Emission 209.85374325387
scalar RSUExampleScenario.node[5].appl generatedWSMs 1
scalar RSUExampleScenario.node[5].appl receivedWSMs 70
scalar RSUExampleScenario.node[5].appl generatedBSMs 948
scalar RSUExampleScenario.node[5].appl receivedBSMs 38262
scalar RSUExampleScenario.node[5].appl generatedWSAs 0
scalar RSUExampleScenario.node[5].appl receivedWSAs 0
scalar RSUExampleScenario.node[5].nic.phy80211p busyTime 0.046766919831224
scalar RSUExampleScenario.node[5].nic.mac1609_4 ReceivedUnicastPackets 0
scalar RSUExampleScenario.node[5].nic.mac1609_4 ReceivedBroadcasts 38332
scalar RSUExampleScenario.node[5].nic.mac1609_4 SentPackets 949
scalar RSUExampleScenario.node[5].nic.mac1609_4 SentAcknowledgements 0
scalar RSUExampleScenario.node[5].nic.mac1609_4 RetriesExceeded 0
scalar RSUExampleScenario.node[5].nic.mac1609_4 SNIRLostPackets 4192
scalar RSUExampleScenario.node[5].nic.mac1609_4 RXTXLostPackets 0
scalar RSUExampleScenario.node[5].nic.mac1609_4 TotalLostPackets 4192
scalar RSUExampleScenario.node[5].nic.mac1609_4 DroppedPacketsInMac 0
scalar RSUExampleScenario.node[5].nic.mac1609_4 TooLittleTime 0
scalar RSUExampleScenario.node[5].nic.mac1609_4 TimesIntoBackoff 950
scalar RSUExampleScenario.node[5].nic.mac1609_4 SlotsBackoff 1436
scalar RSUExampleScenario.node[5].nic.mac1609_4 NumInternalContention 0
scalar RSUExampleScenario.node[5].nic.mac1609_4 totalBusyTime 4.447765
scalar RSUExampleScenario.node[5].nic.mac1609_4 retriesExceeded:count 0
attr source org_car2x_veins_modules_mac_sigRetriesExceeded
scalar RSUExampleScenario.node[5].nic.mac1609_4 sentAcks:count 0
attr source org_car2x_veins_modules_mac_sigSentAck
scalar RSUExampleScenario.node[5].nic.mac1609_4 sentPackets:count 949
attr source org_car2x_veins_modules_mac_sigSentPacket
scalar RSUExampleScenario.node[5].nic.mac1609_4 collisions:count 0
attr source org_car2x_veins_modules_mac_sigCollision
scalar RSUExampleScenario.node[5].nic.mac1609_4 channelBusy:timeavg 0.046917352320676
attr source org_car2x_veins_modules_mac_sigChannelBusy
scalar RSUExampleScenario.node[5].veinsmobility startTime 3.9
scalar RSUExampleScenario.node[5].veinsmobility totalTime 94.7
scalar RSUExampleScenario.node[5].veinsmobility stopTime 98.7
scalar RSUExampleScenario.node[5].veinsmobility minSpeed 0
scalar RSUExampleScenario.node[5].veinsmobility maxSpeed 11.557749651842
scalar RSUExampleScenario.node[5].veinsmobility totalDistance 749.18962420801
scalar RSUExampleScenario.node[5].veinsmobility totalCO2Emission 224.46070063892
scalar RSUExampleScenario.node[8].appl generatedWSMs 1
scalar RSUExampleScenario.node[8].appl receivedWSMs 73
scalar RSUExampleScenario.node[8].appl generatedBSMs 941
scalar RSUExampleScenario.node[8].appl receivedBSMs 39529
scalar RSUExampleScenario.node[8].appl generatedWSAs 0
scalar RSUExampleScenario.node[8].appl receivedWSAs 0
scalar RSUExampleScenario.node[8].nic.phy80211p busyTime 0.048850754516478
scalar RSUExampleScenario.node[8].nic.mac1609_4 ReceivedUnicastPackets 0
scalar RSUExampleScenario.node[8].nic.mac1609_4 ReceivedBroadcasts 39602
scalar RSUExampleScenario.node[8].nic.mac1609_4 SentPackets 942
scalar RSUExampleScenario.node[8].nic.mac1609_4 SentAcknowledgements 0
scalar RSUExampleScenario.node[8].nic.mac1609_4 RetriesExceeded 0
scalar RSUExampleScenario.node[8].nic.mac1609_4 SNIRLostPackets 4489
scalar RSUExampleScenario.node[8].nic.mac1609_4 RXTXLostPackets 0
scalar RSUExampleScenario.node[8].nic.mac1609_4 TotalLostPackets 4489
scalar RSUExampleScenario.node[8].nic.mac1609_4 DroppedPacketsInMac 0
scalar RSUExampleScenario.node[8].nic.mac1609_4 TooLittleTime 0
scalar RSUExampleScenario.node[8].nic.mac1609_4 TimesIntoBackoff 942
scalar RSUExampleScenario.node[8].nic.mac1609_4 SlotsBackoff 1352
scalar RSUExampleScenario.node[8].nic.mac1609_4 NumInternalContention 0
scalar RSUExampleScenario.node[8].nic.mac1609_4 totalBusyTime 4.604974
scalar RSUExampleScenario.node[8].nic.mac1609_4 retriesExceeded:count 0
attr source org_car2x_veins_modules_mac_sigRetriesExceeded
scalar RSUExampleScenario.node[8].nic.mac1609_4 sentAcks:count 0
attr source org_car2x_veins_modules_mac_sigSentAck
scalar RSUExampleScenario.node[8].nic.mac1609_4 sentPackets:count 942
attr source org_car2x_veins_modules_mac_sigSentPacket
scalar RSUExampleScenario.node[8].nic.mac1609_4 collisions:count 0
attr source org_car2x_veins_modules_mac_sigCollision
scalar RSUExampleScenario.node[8].nic.mac1609_4 channelBusy:timeavg 0.048937024442089
attr source org_car2x_veins_modules_mac_sigChannelBusy
scalar RSUExampleScenario.node[8].veinsmobility startTime 6.5
scalar RSUExampleScenario.node[8].veinsmobility totalTime 94
scalar RSUExampleScenario.node[8].veinsmobility stopTime 100.6
scalar RSUExampleScenario.node[8].veinsmobility minSpeed 1.2114293701542e-05
scalar RSUExampleScenario.node[8].veinsmobility maxSpeed 10.540920072219
scalar RSUExampleScenario.node[8].veinsmobility totalDistance 749.49992797034
scalar RSUExampleScenario.node[8].veinsmobility totalCO2Emission 219.08645138901
scalar RSUExampleScenario.node[11].appl generatedWSMs 1
scalar RSUExampleScenario.node[11].appl receivedWSMs 75
scalar RSUExampleScenario.node[11].appl generatedBSMs 924
scalar RSUExampleScenario.node[11].appl receivedBSMs 40578
scalar RSUExampleScenario.node[11].appl generatedWSAs 0
scalar RSUExampleScenario.node[11].appl receivedWSAs 0
scalar RSUExampleScenario.node[11].nic.phy80211p busyTime 0.051077316017326
scalar RSUExampleScenario.node[11].nic.mac1609_4 ReceivedUnicastPackets 0
scalar RSUExampleScenario.node[11].nic.mac1609_4 ReceivedBroadcasts 40653
scalar RSUExampleScenario.node[11].nic.mac1609_4 SentPackets 925
scalar RSUExampleScenario.node[11].nic.mac1609_4 SentAcknowledgements 0
scalar RSUExampleScenario.node[11].nic.mac1609_4 RetriesExceeded 0
scalar RSUExampleScenario.node[11].nic.mac1609_4 SNIRLostPackets 4614
scalar RSUExampleScenario.node[11].nic.mac1609_4 RXTXLostPackets 0
scalar RSUExampleScenario.node[11].nic.mac1609_4 TotalLostPackets 4614
scalar RSUExampleScenario.node[11].nic.mac1609_4 DroppedPacketsInMac 0
scalar RSUExampleScenario.node[11].nic.mac1609_4 TooLittleTime 0
scalar RSUExampleScenario.node[11].nic.mac1609_4 TimesIntoBackoff 925
scalar RSUExampleScenario.node[11].nic.mac1609_4 SlotsBackoff 1391
scalar RSUExampleScenario.node[11].nic.mac1609_4 NumInternalContention 0
scalar RSUExampleScenario.node[11].nic.mac1609_4 totalBusyTime 4.722757
scalar RSUExampleScenario.node[11].nic.mac1609_4 retriesExceeded:count 0
attr source org_car2x_veins_modules_mac_sigRetriesExceeded
scalar RSUExampleScenario.node[11].nic.mac1609_4 sentAcks:count 0
attr source org_car2x_veins_modules_mac_sigSentAck
scalar RSUExampleScenario.node[11].nic.mac1609_4 sentPackets:count 925
attr source org_car2x_veins_modules_mac_sigSentPacket
scalar RSUExampleScenario.node[11].nic.mac1609_4 collisions:count 0
attr source org_car2x_veins_modules_mac_sigCollision
scalar RSUExampleScenario.node[11].nic.mac1609_4 channelBusy:timeavg 0.051112088744599
attr source org_car2x_veins_modules_mac_sigChannelBusy
scalar RSUExampleScenario.node[11].veinsmobility startTime 9.8
scalar RSUExampleScenario.node[11].veinsmobility totalTime 92.3
scalar RSUExampleScenario.node[11].veinsmobility stopTime 102.2
scalar RSUExampleScenario.node[11].veinsmobility minSpeed 0.00025015612375163
scalar RSUExampleScenario.node[11].veinsmobility maxSpeed 11.251700766881
scalar RSUExampleScenario.node[11].veinsmobility totalDistance 748.49500315277
scalar RSUExampleScenario.node[11].veinsmobility totalCO2Emission 226.43891879663
scalar RSUExampleScenario.node[14].appl generatedWSMs 1
scalar RSUExampleScenario.node[14].appl receivedWSMs 80
scalar RSUExampleScenario.node[14].appl generatedBSMs 942
scalar RSUExampleScenario.node[14].appl receivedBSMs 44516
scalar RSUExampleScenario.node[14].appl generatedWSAs 0
scalar RSUExampleScenario.node[14].appl receivedWSAs 0
scalar RSUExampleScenario.node[14].nic.phy80211p busyTime 0.055462590233572
scalar RSUExampleScenario.node[14].nic.mac1609_4 ReceivedUnicastPackets 0
scalar RSUExampleScenario.node[14].nic.mac1609_4 ReceivedBroadcasts 44596
scalar RSUExampleScenario.node[14].nic.mac1609_4 SentPackets 943
scalar RSUExampleScenario.node[14].nic.mac1609_4 SentAcknowledgements 0
scalar RSUExampleScenario.node[14].nic.mac1609_4 RetriesExceeded 0
scalar RSUExampleScenario.node[14].nic.mac1609_4 SNIRLostPackets 5516
scalar RSUExampleScenario.node[14].nic.mac1609_4 RXTXLostPackets 0
scalar RSUExampleScenario.node[14].nic.mac1609_4 TotalLostPackets 5516
scalar RSUExampleScenario.node[14].nic.mac1609_4 DroppedPacketsInMac 0
scalar RSUExampleScenario.node[14].nic.mac1609_4 TooLittleTime 0
scalar RSUExampleScenario.node[14].nic.mac1609_4 TimesIntoBackoff 943
scalar RSUExampleScenario.node[14].nic.mac1609_4 SlotsBackoff 1429
scalar RSUExampleScenario.node[14].nic.mac1609_4 NumInternalContention 0
scalar RSUExampleScenario.node[14].nic.mac1609_4 totalBusyTime 5.218135
scalar RSUExampleScenario.node[14].nic.mac1609_4 retriesExceeded:count 0
attr source org_car2x_veins_modules_mac_sigRetriesExceeded
scalar RSUExampleScenario.node[14].nic.mac1609_4 sentAcks:count 0
attr source org_car2x_veins_modules_mac_sigSentAck
scalar RSUExampleScenario.node[14].nic.mac1609_4 sentPackets:count 943
attr source org_car2x_veins_modules_mac_sigSentPacket
scalar RSUExampleScenario.node[14].nic.mac1609_4 collisions:count 0
attr source org_car2x_veins_modules_mac_sigCollision
scalar RSUExampleScenario.node[14].nic.mac1609_4 channelBusy:timeavg 0.055394214437393
attr source org_car2x_veins_modules_mac_sigChannelBusy
scalar RSUExampleScenario.node[14].veinsmobility startTime 13.6
scalar RSUExampleScenario.node[14].veinsmobility totalTime 94.1
scalar RSUExampleScenario.node[14].veinsmobility stopTime 107.8
scalar RSUExampleScenario.node[14].veinsmobility minSpeed 0.0049173906785062
scalar RSUExampleScenario.node[14].veinsmobility maxSpeed 9.8646360508113
scalar RSUExampleScenario.node[14].veinsmobility totalDistance 749.16816967922
scalar RSUExampleScenario.node[14].veinsmobility totalCO2Emission 212.1653846083
scalar RSUExampleScenario.node[4].appl generatedWSMs 1
scalar RSUExampleScenario.node[4].appl receivedWSMs 78
scalar RSUExampleScenario.node[4].appl generatedBSMs 1050
scalar RSUExampleScenario.node[4].appl receivedBSMs 44965
scalar RSUExampleScenario.node[4].appl generatedWSAs 0
scalar RSUExampleScenario.node[4].appl receivedWSAs 0
scalar RSUExampleScenario.node[4].nic.phy80211p busyTime 0.050679009523836
scalar RSUExampleScenario.node[4].nic.mac1609_4 ReceivedUnicastPackets 0
scalar RSUExampleScenario.node[4].nic.mac1609_4 ReceivedBroadcasts 45043
scalar RSUExampleScenario.node[4].nic.mac1609_4 SentPackets 1051
scalar RSUExampleScenario.node[4].nic.mac1609_4 SentAcknowledgements 0
scalar RSUExampleScenario.node[4].nic.mac1609_4 RetriesExceeded 0
scalar RSUExampleScenario.node[4].nic.mac1609_4 SNIRLostPackets 5999
scalar RSUExampleScenario.node[4].nic.mac1609_4 RXTXLostPackets 282
scalar RSUExampleScenario.node[4].nic.mac1609_4 TotalLostPackets 6281
scalar RSUExampleScenario.node[4].nic.mac1609_4 DroppedPacketsInMac 0
scalar RSUExampleScenario.node[4].nic.mac1609_4 TooLittleTime 0
scalar RSUExampleScenario.node[4].nic.mac1609_4 TimesIntoBackoff 1051
scalar RSUExampleScenario.node[4].nic.mac1609_4 SlotsBackoff 1605
scalar RSUExampleScenario.node[4].nic.mac1609_4 NumInternalContention 0
scalar RSUExampleScenario.node[4].nic.mac1609_4 totalBusyTime 5.354563
scalar RSUExampleScenario.node[4].nic.mac1609_4 retriesExceeded:count 0
attr source org_car2x_veins_modules_mac_sigRetriesExceeded
scalar RSUExampleScenario.node[4].nic.mac1609_4 sentAcks:count 0
attr source org_car2x_veins_modules_mac_sigSentAck
scalar RSUExampleScenario.node[4].nic.mac1609_4 sentPackets:count 1051
attr source org_car2x_veins_modules_mac_sigSentPacket
scalar RSUExampleScenario.node[4].nic.mac1609_4 collisions:count 0
attr source org_car2x_veins_modules_mac_sigCollision
scalar RSUExampleScenario.node[4].nic.mac1609_4 channelBusy:timeavg 0.050995838095265
attr source org_car2x_veins_modules_mac_sigChannelBusy
scalar RSUExampleScenario.node[4].veinsmobility startTime 3.1
scalar RSUExampleScenario.node[4].veinsmobility totalTime 104.9
scalar RSUExampleScenario.node[4].veinsmobility stopTime 108.1
scalar RSUExampleScenario.node[4].veinsmobility minSpeed 0
scalar RSUExampleScenario.node[4].veinsmobility maxSpeed 8.8310542164931
scalar RSUExampleScenario.node[4].veinsmobility totalDistance 746.31861609945
scalar RSUExampleScenario.node[4].veinsmobility totalCO2Emission 214.26622182796
scalar RSUExampleScenario.node[17].appl generatedWSMs 1
scalar RSUExampleScenario.node[17].appl receivedWSMs 82
scalar RSUExampleScenario.node[17].appl generatedBSMs 918
scalar RSUExampleScenario.node[17].appl receivedBSMs 45360
scalar RSUExampleScenario.node[17].appl generatedWSAs 0
scalar RSUExampleScenario.node[17].appl receivedWSAs 0
scalar RSUExampleScenario.node[17].nic.phy80211p busyTime 0.058084270152536
scalar RSUExampleScenario.node[17].nic.mac1609_4 ReceivedUnicastPackets 0
scalar RSUExampleScenario.node[17].nic.mac1609_4 ReceivedBroadcasts 45442
scalar RSUExampleScenario.node[17].nic.mac1609_4 SentPackets 919
scalar RSUExampleScenario.node[17].nic.mac1609_4 SentAcknowledgements 0
scalar RSUExampleScenario.node[17].nic.mac1609_4 RetriesExceeded 0
scalar RSUExampleScenario.node[17].nic.mac1609_4 SNIRLostPackets 5703
scalar RSUExampleScenario.node[17].nic.mac1609_4 RXTXLostPackets 0
scalar RSUExampleScenario.node[17].nic.mac1609_4 TotalLostPackets 5703
scalar RSUExampleScenario.node[17].nic.mac1609_4 DroppedPacketsInMac 0
scalar RSUExampleScenario.node[17].nic.mac1609_4 TooLittleTime 0
scalar RSUExampleScenario.node[17].nic.mac1609_4 TimesIntoBackoff 919
scalar RSUExampleScenario.node[17].nic.mac1609_4 SlotsBackoff 1336
scalar RSUExampleScenario.node[17].nic.mac1609_4 NumInternalContention 0
scalar RSUExampleScenario.node[17].nic.mac1609_4 totalBusyTime 5.320679
scalar RSUExampleScenario.node[17].nic.mac1609_4 retriesExceeded:count 0
attr source org_car2x_veins_modules_mac_sigRetriesExceeded
scalar RSUExampleScenario.node[17].nic.mac1609_4 sentAcks:count 0
attr source org_car2x_veins_modules_mac_sigSentAck
scalar RSUExampleScenario.node[17].nic.mac1609_4 sentPackets:count 919
attr source org_car2x_veins_modules_mac_sigSentPacket
scalar RSUExampleScenario.node[17].nic.mac1609_4 collisions:count 0
attr source org_car2x_veins_modules_mac_sigCollision
scalar RSUExampleScenario.node[17].nic.mac1609_4 channelBusy:timeavg 0.057959466230966
attr source org_car2x_veins_modules_mac_sigChannelBusy
scalar RSUExampleScenario.node[17].veinsmobility startTime 17.7
scalar RSUExampleScenario.node[17].veinsmobility totalTime 91.7
scalar RSUExampleScenario.node[17].veinsmobility stopTime 109.5
scalar RSUExampleScenario.node[17].veinsmobility minSpeed 0.04186937087707
scalar RSUExampleScenario.node[17].veinsmobility maxSpeed 10.562323104718
scalar RSUExampleScenario.node[17].veinsmobility totalDistance 748.85811851484
scalar RSUExampleScenario.node[17].veinsmobility totalCO2Emission 222.38930696746
scalar RSUExampleScenario.node[23].appl generatedWSMs 1
scalar RSUExampleScenario.node[23].appl receivedWSMs 87
scalar RSUExampleScenario.node[23].appl generatedBSMs 867
scalar RSUExampleScenario.node[23].appl receivedBSMs 45476
scalar RSUExampleScenario.node[23].appl generatedWSAs 0
scalar RSUExampleScenario.node[23].appl receivedWSAs 0
scalar RSUExampleScenario.node[23].nic.phy80211p busyTime 0.061819146482156
scalar RSUExampleScenario.node[23].nic.mac1609_4 ReceivedUnicastPackets 0
scalar RSUExampleScenario.node[23].nic.mac1609_4 ReceivedBroadcasts 45563
scalar RSUExampleScenario.node[23].nic.mac1609_4 SentPackets 868
scalar RSUExampleScenario.node[23].nic.mac1609_4 SentAcknowledgements 0
scalar RSUExampleScenario.node[23].nic.mac1609_4 RetriesExceeded 0
scalar RSUExampleScenario.node[23].nic.mac1609_4 SNIRLostPackets 5846
scalar RSUExampleScenario.node[23].nic.mac1609_4 RXTXLostPackets 0
scalar RSUExampleScenario.node[23].nic.mac1609_4 TotalLostPackets 5846
scalar RSUExampleScenario.node[23].nic.mac1609_4 DroppedPacketsInMac 0
scalar RSUExampleScenario.node[23].nic.mac1609_4 TooLittleTime 0
scalar RSUExampleScenario.node[23].nic.mac1609_4 TimesIntoBackoff 868
scalar RSUExampleScenario.node[23].nic.mac1609_4 SlotsBackoff 1353
scalar RSUExampleScenario.node[23].nic.mac1609_4 NumInternalContention 0
scalar RSUExampleScenario.node[23].nic.mac1609_4 totalBusyTime 5.341036
scalar RSUExampleScenario.node[23].nic.mac1609_4 retriesExceeded:count 0
attr source org_car2x_veins_modules_mac_sigRetriesExceeded
scalar RSUExampleScenario.node[23].nic.mac1609_4 sentAcks:count 0
attr source org_car2x_veins_modules_mac_sigSentAck
scalar RSUExampleScenario.node[23].nic.mac1609_4 sentPackets:count 868
attr source org_car2x_veins_modules_mac_sigSentPacket
scalar RSUExampleScenario.node[23].nic.mac1609_4 collisions:count 0
attr source org_car2x_veins_modules_mac_sigCollision
scalar RSUExampleScenario.node[23].nic.mac1609_4 channelBusy:timeavg 0.061603644752051
attr source org_car2x_veins_modules_mac_sigChannelBusy
scalar RSUExampleScenario.node[23].veinsmobility startTime 24.4
scalar RSUExampleScenario.node[23].veinsmobility totalTime 86.6
scalar RSUExampleScenario.node[23].veinsmobility stopTime 111.1
scalar RSUExampleScenario.node[23].veinsmobility minSpeed 1.383670740339
scalar RSUExampleScenario.node[23].veinsmobility maxSpeed 11.813300117779
scalar RSUExampleScenario.node[23].veinsmobility totalDistance 748.62206588696
scalar RSUExampleScenario.node[23].veinsmobility totalCO2Emission 222.71489539067
scalar RSUExampleScenario.node[24].appl generatedWSMs 1
scalar RSUExampleScenario.node[24].appl receivedWSMs 86
scalar RSUExampleScenario.node[24].appl generatedBSMs 868
scalar RSUExampleScenario.node[24].appl receivedBSMs 46784
scalar RSUExampleScenario.node[24].appl generatedWSAs 0
scalar RSUExampleScenario.node[24].appl receivedWSAs 0
scalar RSUExampleScenario.node[24].nic.phy80211p busyTime 0.06370534562216
scalar RSUExampleScenario.node[24].nic.mac1609_4 ReceivedUnicastPackets 0
scalar RSUExampleScenario.node[24].nic.mac1609_4 ReceivedBroadcasts 46870
scalar RSUExampleScenario.node[24].nic.mac1609_4 SentPackets 869
scalar RSUExampleScenario.node[24].nic.mac1609_4 SentAcknowledgements 0
scalar RSUExampleScenario.node[24].nic.mac1609_4 RetriesExceeded 0
scalar RSUExampleScenario.node[24].nic.mac1609_4 SNIRLostPackets 6169
scalar RSUExampleScenario.node[24].nic.mac1609_4 RXTXLostPackets 0
scalar RSUExampleScenario.node[24].nic.mac1609_4 TotalLostPackets 6169
scalar RSUExampleScenario.node[24].nic.mac1609_4 DroppedPacketsInMac 0
scalar RSUExampleScenario.node[24].nic.mac1609_4 TooLittleTime 0
scalar RSUExampleScenario.node[24].nic.mac1609_4 TimesIntoBackoff 869
scalar RSUExampleScenario.node[24].nic.mac1609_4 SlotsBackoff 1255
scalar RSUExampleScenario.node[24].nic.mac1609_4 NumInternalContention 0
scalar RSUExampleScenario.node[24].nic.mac1609_4 totalBusyTime 5.508237
scalar RSUExampleScenario.node[24].nic.mac1609_4 retriesExceeded:count 0
attr source org_car2x_veins_modules_mac_sigRetriesExceeded
scalar RSUExampleScenario.node[24].nic.mac1609_4 sentAcks:count 0
attr source org_car2x_veins_modules_mac_sigSentAck
scalar RSUExampleScenario.node[24].nic.mac1609_4 sentPackets:count 869
attr source org_car2x_veins_modules_mac_sigSentPacket
scalar RSUExampleScenario.node[24].nic.mac1609_4 collisions:count 0
attr source org_car2x_veins_modules_mac_sigCollision
scalar RSUExampleScenario.node[24].nic.mac1609_4 channelBusy:timeavg 0.063458951612941
attr source org_car2x_veins_modules_mac_sigChannelBusy
scalar RSUExampleScenario.node[24].veinsmobility startTime 26.4
scalar RSUExampleScenario.node[24].veinsmobility totalTime 86.7
scalar RSUExampleScenario.node[24].veinsmobility stopTime 113.2
scalar RSUExampleScenario.node[24].veinsmobility minSpeed 2.3240481445284
scalar RSUExampleScenario.node[24].veinsmobility maxSpeed 10.052418376534
scalar RSUExampleScenario.node[24].veinsmobility totalDistance 749.23406364416
scalar RSUExampleScenario.node[24].veinsmobility totalCO2Emission 211.28432340504
scalar RSUExampleScenario.node[28].appl generatedWSMs 1
scalar RSUExampleScenario.node[28].appl receivedWSMs 90
scalar RSUExampleScenario.node[28].appl generatedBSMs 844
scalar RSUExampleScenario.node[28].appl receivedBSMs 47262
scalar RSUExampleScenario.node[28].appl generatedWSAs 0
scalar RSUExampleScenario.node[28].appl receivedWSAs 0
scalar RSUExampleScenario.node[28].nic.phy80211p busyTime 0.06633535545028
scalar RSUExampleScenario.node[28].nic.mac1609_4 ReceivedUnicastPackets 0
scalar RSUExampleScenario.node[28].nic.mac1609_4 ReceivedBroadcasts 47352
scalar RSUExampleScenario.node[28].nic.mac1609_4 SentPackets 845
scalar RSUExampleScenario.node[28].nic.mac1609_4 SentAcknowledgements 0
scalar RSUExampleScenario.node[28].nic.mac1609_4 RetriesExceeded 0
scalar RSUExampleScenario.node[28].nic.mac1609_4 SNIRLostPackets 6350
scalar RSUExampleScenario.node[28].nic.mac1609_4 RXTXLostPackets 0
scalar RSUExampleScenario.node[28].nic.mac1609_4 TotalLostPackets 6350
scalar RSUExampleScenario.node[28].nic.mac1609_4 DroppedPacketsInMac 0
scalar RSUExampleScenario.node[28].nic.mac1609_4 TooLittleTime 0
scalar RSUExampleScenario.node[28].nic.mac1609_4 TimesIntoBackoff 845
scalar RSUExampleScenario.node[28].nic.mac1609_4 SlotsBackoff 1289
scalar RSUExampleScenario.node[28].nic.mac1609_4 NumInternalContention 0
scalar RSUExampleScenario.node[28].nic.mac1609_4 totalBusyTime 5.571885
scalar RSUExampleScenario.node[28].nic.mac1609_4 retriesExceeded:count 0
attr source org_car2x_veins_modules_mac_sigRetriesExceeded
scalar RSUExampleScenario.node[28].nic.mac1609_4 sentAcks:count 0
attr source org_car2x_veins_modules_mac_sigSentAck
scalar RSUExampleScenario.node[28].nic.mac1609_4 sentPackets:count 845
attr source org_car2x_veins_modules_mac_sigSentPacket
scalar RSUExampleScenario.node[28].nic.mac1609_4 collisions:count 0
attr source org_car2x_veins_modules_mac_sigCollision
scalar RSUExampleScenario.node[28].nic.mac1609_4 channelBusy:timeavg 0.066017594786771
attr source org_car2x_veins_modules_mac_sigChannelBusy
scalar RSUExampleScenario.node[28].veinsmobility startTime 30.5
scalar RSUExampleScenario.node[28].veinsmobility totalTime 84.3
scalar RSUExampleScenario.node[28].veinsmobility stopTime 114.9
scalar RSUExampleScenario.node[28].veinsmobility minSpeed 2.8018793871781
scalar RSUExampleScenario.node[28].veinsmobility maxSpeed 10.855882822593
scalar RSUExampleScenario.node[28].veinsmobility totalDistance 749.49554896668
scalar RSUExampleScenario.node[28].veinsmobility totalCO2Emission 212.1797575463
scalar RSUExampleScenario.node[31].appl generatedWSMs 1
scalar RSUExampleScenario.node[31].appl receivedWSMs 93
scalar RSUExampleScenario.node[31].appl generatedBSMs 821
scalar RSUExampleScenario.node[31].appl receivedBSMs 47831
scalar RSUExampleScenario.node[31].appl generatedWSAs 0
scalar RSUExampleScenario.node[31].appl receivedWSAs 0
scalar RSUExampleScenario.node[31].nic.phy80211p busyTime 0.069089598051205
scalar RSUExampleScenario.node[31].nic.mac1609_4 ReceivedUnicastPackets 0
scalar RSUExampleScenario.node[31].nic.mac1609_4 ReceivedBroadcasts 47924
scalar RSUExampleScenario.node[31].nic.mac1609_4 SentPackets 822
scalar RSUExampleScenario.node[31].nic.mac1609_4 SentAcknowledgements 0
scalar RSUExampleScenario.node[31].nic.mac1609_4 RetriesExceeded 0
scalar RSUExampleScenario.node[31].nic.mac1609_4 SNIRLostPackets 6484
scalar RSUExampleScenario.node[31].nic.mac1609_4 RXTXLostPackets 0
scalar RSUExampleScenario.node[31].nic.mac1609_4 TotalLostPackets 6484
scalar RSUExampleScenario.node[31].nic.mac1609_4 DroppedPacketsInMac 0
scalar RSUExampleScenario.node[31].nic.mac1609_4 TooLittleTime 0
scalar RSUExampleScenario.node[31].nic.mac1609_4 TimesIntoBackoff 824
scalar RSUExampleScenario.node[31].nic.mac1609_4 SlotsBackoff 1239
scalar RSUExampleScenario.node[31].nic.mac1609_4 NumInternalContention 0
scalar RSUExampleScenario.node[31].nic.mac1609_4 totalBusyTime 5.640318
scalar RSUExampleScenario.node[31].nic.mac1609_4 retriesExceeded:count 0
attr source org_car2x_veins_modules_mac_sigRetriesExceeded
scalar RSUExampleScenario.node[31].nic.mac1609_4 sentAcks:count 0
attr source org_car2x_veins_modules_mac_sigSentAck
scalar RSUExampleScenario.node[31].nic.mac1609_4 sentPackets:count 822
attr source org_car2x_veins_modules_mac_sigSentPacket
scalar RSUExampleScenario.node[31].nic.mac1609_4 collisions:count 0
attr source org_car2x_veins_modules_mac_sigCollision
scalar RSUExampleScenario.node[31].nic.mac1609_4 channelBusy:timeavg 0.068700584652907
attr source org_car2x_veins_modules_mac_sigChannelBusy
scalar RSUExampleScenario.node[31].veinsmobility startTime 34.7
scalar RSUExampleScenario.node[31].veinsmobility totalTime 82
scalar RSUExampleScenario.node[31].veinsmobility stopTime 116.8
scalar RSUExampleScenario.node[31].veinsmobility minSpeed 2.3203609919962
scalar RSUExampleScenario.node[31].veinsmobility maxSpeed 10.201313214503
scalar RSUExampleScenario.node[31].veinsmobility totalDistance 749.46818425367
scalar RSUExampleScenario.node[31].veinsmobility totalCO2Emission 198.9896135891
scalar RSUExampleScenario.node[34].appl generatedWSMs 1
scalar RSUExampleScenario.node[34].appl receivedWSMs 64
scalar RSUExampleScenario.node[34].appl generatedBSMs 795
scalar RSUExampleScenario.node[34].appl receivedBSMs 48022
scalar RSUExampleScenario.node[34].appl generatedWSAs 0
scalar RSUExampleScenario.node[34].appl receivedWSAs 0
scalar RSUExampleScenario.node[34].nic.phy80211p busyTime 0.071153610062942
scalar RSUExampleScenario.node[34].nic.mac1609_4 ReceivedUnicastPackets 0
scalar RSUExampleScenario.node[34].nic.mac1609_4 ReceivedBroadcasts 48086
scalar RSUExampleScenario.node[34].nic.mac1609_4 SentPackets 796
scalar RSUExampleScenario.node[34].nic.mac1609_4 SentAcknowledgements 0
scalar RSUExampleScenario.node[34].nic.mac1609_4 RetriesExceeded 0
scalar RSUExampleScenario.node[34].nic.mac1609_4 SNIRLostPackets 6207
scalar RSUExampleScenario.node[34].nic.mac1609_4 RXTXLostPackets 375
scalar RSUExampleScenario.node[34].nic.mac1609_4 TotalLostPackets 6582
scalar RSUExampleScenario.node[34].nic.mac1609_4 DroppedPacketsInMac 0
scalar RSUExampleScenario.node[34].nic.mac1609_4 TooLittleTime 0
scalar RSUExampleScenario.node[34].nic.mac1609_4 TimesIntoBackoff 796
scalar RSUExampleScenario.node[34].nic.mac1609_4 SlotsBackoff 1225
scalar RSUExampleScenario.node[34].nic.mac1609_4 NumInternalContention 0
scalar RSUExampleScenario.node[34].nic.mac1609_4 totalBusyTime 5.658964
scalar RSUExampleScenario.node[34].nic.mac1609_4 retriesExceeded:count 0
attr source org_car2x_veins_modules_mac_sigRetriesExceeded
scalar RSUExampleScenario.node[34].nic.mac1609_4 sentAcks:count 0
attr source org_car2x_veins_modules_mac_sigSentAck
scalar RSUExampleScenario.node[34].nic.mac1609_4 sentPackets:count 796
attr source org_car2x_veins_modules_mac_sigSentPacket
scalar RSUExampleScenario.node[34].nic.mac1609_4 collisions:count 0
attr source org_car2x_veins_modules_mac_sigCollision
scalar RSUExampleScenario.node[34].nic.mac1609_4 channelBusy:timeavg 0.071181937106966
attr source org_car2x_veins_modules_mac_sigChannelBusy
scalar RSUExampleScenario.node[34].veinsmobility startTime 38.9
scalar RSUExampleScenario.node[34].veinsmobility totalTime 79.4
scalar RSUExampleScenario.node[34].veinsmobility stopTime 118.4
scalar RSUExampleScenario.node[34].veinsmobility minSpeed 2.8668797745473
scalar RSUExampleScenario.node[34].veinsmobility maxSpeed 11.509772506029
scalar RSUExampleScenario.node[34].veinsmobility totalDistance 748.90231668483
scalar RSUExampleScenario.node[34].veinsmobility totalCO2Emission 211.93088040693
scalar RSUExampleScenario.node[7].appl generatedWSMs 1
scalar RSUExampleScenario.node[7].appl receivedWSMs 89
scalar RSUExampleScenario.node[7].appl generatedBSMs 1130
scalar RSUExampleScenario.node[7].appl receivedBSMs 54298
scalar RSUExampleScenario.node[7].appl generatedWSAs 0
scalar RSUExampleScenario.node[7].appl receivedWSAs 0
scalar RSUExampleScenario.node[7].nic.phy80211p busyTime 0.057348955752269
scalar RSUExampleScenario.node[7].nic.mac1609_4 ReceivedUnicastPackets 0
scalar RSUExampleScenario.node[7].nic.mac1609_4 ReceivedBroadcasts 54387
scalar RSUExampleScenario.node[7].nic.mac1609_4 SentPackets 1131
scalar RSUExampleScenario.node[7].nic.mac1609_4 SentAcknowledgements 0
scalar RSUExampleScenario.node[7].nic.mac1609_4 RetriesExceeded 0
scalar RSUExampleScenario.node[7].nic.mac1609_4 SNIRLostPackets 7787
scalar RSUExampleScenario.node[7].nic.mac1609_4 RXTXLostPackets 0
scalar RSUExampleScenario.node[7].nic.mac1609_4 TotalLostPackets 7787
scalar RSUExampleScenario.node[7].nic.mac1609_4 DroppedPacketsInMac 0
scalar RSUExampleScenario.node[7].nic.mac1609_4 TooLittleTime 0
scalar RSUExampleScenario.node[7].nic.mac1609_4 TimesIntoBackoff 1132
scalar RSUExampleScenario.node[7].nic.mac1609_4 SlotsBackoff 1663
scalar RSUExampleScenario.node[7].nic.mac1609_4 NumInternalContention 0
scalar RSUExampleScenario.node[7].nic.mac1609_4 totalBusyTime 6.478211
scalar RSUExampleScenario.node[7].nic.mac1609_4 retriesExceeded:count 0
attr source org_car2x_veins_modules_mac_sigRetriesExceeded
scalar RSUExampleScenario.node[7].nic.mac1609_4 sentAcks:count 0
attr source org_car2x_veins_modules_mac_sigSentAck
scalar RSUExampleScenario.node[7].nic.mac1609_4 sentPackets:count 1131
attr source org_car2x_veins_modules_mac_sigSentPacket
scalar RSUExampleScenario.node[7].nic.mac1609_4 collisions:count 0
attr source org_car2x_veins_modules_mac_sigCollision
scalar RSUExampleScenario.node[7].nic.mac1609_4 channelBusy:timeavg 0.057329300885011
attr source org_car2x_veins_modules_mac_sigChannelBusy
scalar RSUExampleScenario.node[7].veinsmobility startTime 6.1
scalar RSUExampleScenario.node[7].veinsmobility totalTime 112.9
scalar RSUExampleScenario.node[7].veinsmobility stopTime 119.1
scalar RSUExampleScenario.node[7].veinsmobility minSpeed 0.00042828833042584
scalar RSUExampleScenario.node[7].veinsmobility maxSpeed 7.6441340228734
scalar RSUExampleScenario.node[7].veinsmobility totalDistance 746.76957928565
scalar RSUExampleScenario.node[7].veinsmobility totalCO2Emission 217.7766923612
scalar RSUExampleScenario.manager roiArea 0
scalar RSUExampleScenario.node[2].appl generatedWSMs 1
scalar RSUExampleScenario.node[2].appl receivedWSMs 113
scalar RSUExampleScenario.node[2].appl generatedBSMs 1186
scalar RSUExampleScenario.node[2].appl receivedBSMs 61590
scalar RSUExampleScenario.node[2].appl generatedWSAs 0
scalar RSUExampleScenario.node[2].appl receivedWSAs 0
scalar RSUExampleScenario.node[2].nic.phy80211p busyTime 0.05561153457004
scalar RSUExampleScenario.node[2].nic.mac1609_4 ReceivedUnicastPackets 0
scalar RSUExampleScenario.node[2].nic.mac1609_4 ReceivedBroadcasts 61703
scalar RSUExampleScenario.node[2].nic.mac1609_4 SentPackets 1187
scalar RSUExampleScenario.node[2].nic.mac1609_4 SentAcknowledgements 0
scalar RSUExampleScenario.node[2].nic.mac1609_4 RetriesExceeded 0
scalar RSUExampleScenario.node[2].nic.mac1609_4 SNIRLostPackets 1574
scalar RSUExampleScenario.node[2].nic.mac1609_4 RXTXLostPackets 0
scalar RSUExampleScenario.node[2].nic.mac1609_4 TotalLostPackets 1574
scalar RSUExampleScenario.node[2].nic.mac1609_4 DroppedPacketsInMac 0
scalar RSUExampleScenario.node[2].nic.mac1609_4 TooLittleTime 0
scalar RSUExampleScenario.node[2].nic.mac1609_4 TimesIntoBackoff 1187
scalar RSUExampleScenario.node[2].nic.mac1609_4 SlotsBackoff 1760
scalar RSUExampleScenario.node[2].nic.mac1609_4 NumInternalContention 0
scalar RSUExampleScenario.node[2].nic.mac1609_4 totalBusyTime 6.598355
scalar RSUExampleScenario.node[2].nic.mac1609_4 retriesExceeded:count 0
attr source org_car2x_veins_modules_mac_sigRetriesExceeded
scalar RSUExampleScenario.node[2].nic.mac1609_4 sentAcks:count 0
attr source org_car2x_veins_modules_mac_sigSentAck
scalar RSUExampleScenario.node[2].nic.mac1609_4 sentPackets:count 1187
attr source org_car2x_veins_modules_mac_sigSentPacket
scalar RSUExampleScenario.node[2].nic.mac1609_4 collisions:count 0
attr source org_car2x_veins_modules_mac_sigCollision
scalar RSUExampleScenario.node[2].nic.mac1609_4 channelBusy:timeavg 0.055635370994997
attr source org_car2x_veins_modules_mac_sigChannelBusy
scalar RSUExampleScenario.node[2].veinsmobility startTime 1.4
scalar RSUExampleScenario.node[2].veinsmobility totalTime 118.6
scalar RSUExampleScenario.node[2].veinsmobility stopTime 120
scalar RSUExampleScenario.node[2].veinsmobility minSpeed 0
scalar RSUExampleScenario.node[2].veinsmobility maxSpeed 10.298929500053
scalar RSUExampleScenario.node[2].veinsmobility totalDistance 236.39899927107
scalar RSUExampleScenario.node[2].veinsmobility totalCO2Emission 148.8271286818
scalar RSUExampleScenario.node[3].appl generatedWSMs 1
scalar RSUExampleScenario.node[3].appl receivedWSMs 113
scalar RSUExampleScenario.node[3].appl generatedBSMs 1174
scalar RSUExampleScenario.node[3].appl receivedBSMs 61571
scalar RSUExampleScenario.node[3].appl generatedWSAs 0
scalar RSUExampleScenario.node[3].appl receivedWSAs 0
scalar RSUExampleScenario.node[3].nic.phy80211p busyTime 0.056158705281148
scalar RSUExampleScenario.node[3].nic.mac1609_4 ReceivedUnicastPackets 0
scalar RSUExampleScenario.node[3].nic.mac1609_4 ReceivedBroadcasts 61684
scalar RSUExampleScenario.node[3].nic.mac1609_4 SentPackets 1175
scalar RSUExampleScenario.node[3].nic.mac1609_4 SentAcknowledgements 0
scalar RSUExampleScenario.node[3].nic.mac1609_4 RetriesExceeded 0
scalar RSUExampleScenario.node[3].nic.mac1609_4 SNIRLostPackets 1569
scalar RSUExampleScenario.node[3].nic.mac1609_4 RXTXLostPackets 0
scalar RSUExampleScenario.node[3].nic.mac1609_4 TotalLostPackets 1569
scalar RSUExampleScenario.node[3].nic.mac1609_4 DroppedPacketsInMac 0
scalar RSUExampleScenario.node[3].nic.mac1609_4 TooLittleTime 0
scalar RSUExampleScenario.node[3].nic.mac1609_4 TimesIntoBackoff 1175
scalar RSUExampleScenario.node[3].nic.mac1609_4 SlotsBackoff 1763
scalar RSUExampleScenario.node[3].nic.mac1609_4 NumInternalContention 0
scalar RSUExampleScenario.node[3].nic.mac1609_4 totalBusyTime 6.594599
scalar RSUExampleScenario.node[3].nic.mac1609_4 retriesExceeded:count 0
attr source org_car2x_veins_modules_mac_sigRetriesExceeded
scalar RSUExampleScenario.node[3].nic.mac1609_4 sentAcks:count 0
attr source org_car2x_veins_modules_mac_sigSentAck
scalar RSUExampleScenario.node[3].nic.mac1609_4 sentPackets:count 1175
attr source org_car2x_veins_modules_mac_sigSentPacket
scalar RSUExampleScenario.node[3].nic.mac1609_4 collisions:count 0
attr source org_car2x_veins_modules_mac_sigCollision
scalar RSUExampleScenario.node[3].nic.mac1609_4 channelBusy:timeavg 0.056172052810959
attr source org_car2x_veins_modules_mac_sigChannelBusy
scalar RSUExampleScenario.node[3].veinsmobility startTime 2.6
scalar RSUExampleScenario.node[3].veinsmobility totalTime 117.4
scalar RSUExampleScenario.node[3].veinsmobility stopTime 120
scalar RSUExampleScenario.node[3].veinsmobility minSpeed 0
scalar RSUExampleScenario.node[3].veinsmobility maxSpeed 10.15011059056
scalar RSUExampleScenario.node[3].veinsmobility totalDistance 228.89799014924
scalar RSUExampleScenario.node[3].veinsmobility totalCO2Emission 148.5662413487
scalar RSUExampleScenario.node[6].appl generatedWSMs 1
scalar RSUExampleScenario.node[6].appl receivedWSMs 113
scalar RSUExampleScenario.node[6].appl generatedBSMs 1149
scalar RSUExampleScenario.node[6].appl receivedBSMs 61449
scalar RSUExampleScenario.node[6].appl generatedWSAs 0
scalar RSUExampleScenario.node[6].appl receivedWSAs 0
scalar RSUExampleScenario.node[6].nic.phy80211p busyTime 0.057283759791181
scalar RSUExampleScenario.node[6].nic.mac1609_4 ReceivedUnicastPackets 0
scalar RSUExampleScenario.node[6].nic.mac1609_4 ReceivedBroadcasts 61562
scalar RSUExampleScenario.node[6].nic.mac1609_4 SentPackets 1150
scalar RSUExampleScenario.node[6].nic.mac1609_4 SentAcknowledgements 0
scalar RSUExampleScenario.node[6].nic.mac1609_4 RetriesExceeded 0
scalar RSUExampleScenario.node[6].nic.mac1609_4 SNIRLostPackets 1584
scalar RSUExampleScenario.node[6].nic.mac1609_4 RXTXLostPackets 0
scalar RSUExampleScenario.node[6].nic.mac1609_4 TotalLostPackets 1584
scalar RSUExampleScenario.node[6].nic.mac1609_4 DroppedPacketsInMac 0
scalar RSUExampleScenario.node[6].nic.mac1609_4 TooLittleTime 0
scalar RSUExampleScenario.node[6].nic.mac1609_4 TimesIntoBackoff 1151
scalar RSUExampleScenario.node[6].nic.mac1609_4 SlotsBackoff 1770
scalar RSUExampleScenario.node[6].nic.mac1609_4 NumInternalContention 0
scalar RSUExampleScenario.node[6].nic.mac1609_4 totalBusyTime 6.580846
scalar RSUExampleScenario.node[6].nic.mac1609_4 retriesExceeded:count 0
attr source org_car2x_veins_modules_mac_sigRetriesExceeded
scalar RSUExampleScenario.node[6].nic.mac1609_4 sentAcks:count 0
attr source org_car2x_veins_modules_mac_sigSentAck
scalar RSUExampleScenario.node[6].nic.mac1609_4 sentPackets:count 1150
attr source org_car2x_veins_modules_mac_sigSentPacket
scalar RSUExampleScenario.node[6].nic.mac1609_4 collisions:count 0
attr source org_car2x_veins_modules_mac_sigCollision
scalar RSUExampleScenario.node[6].nic.mac1609_4 channelBusy:timeavg 0.057274551784217
attr source org_car2x_veins_modules_mac_sigChannelBusy
scalar RSUExampleScenario.node[6].veinsmobility startTime 5.1
scalar RSUExampleScenario.node[6].veinsmobility totalTime 114.9
scalar RSUExampleScenario.node[6].veinsmobility stopTime 120
scalar RSUExampleScenario.node[6].veinsmobility minSpeed 0
scalar RSUExampleScenario.node[6].veinsmobility maxSpeed 9.4517788915669
scalar RSUExampleScenario.node[6].veinsmobility totalDistance 221.39698065069
scalar RSUExampleScenario.node[6].veinsmobility totalCO2Emission 146.76634197749
scalar RSUExampleScenario.node[9].appl generatedWSMs 1
scalar RSUExampleScenario.node[9].appl receivedWSMs 113
scalar RSUExampleScenario.node[9].appl generatedBSMs 1119
scalar RSUExampleScenario.node[9].appl receivedBSMs 61200
scalar RSUExampleScenario.node[9].appl generatedWSAs 0
scalar RSUExampleScenario.node[9].appl receivedWSAs 0
scalar RSUExampleScenario.node[9].nic.phy80211p busyTime 0.058618766756092
scalar RSUExampleScenario.node[9].nic.mac1609_4 ReceivedUnicastPackets 0
scalar RSUExampleScenario.node[9].nic.mac1609_4 ReceivedBroadcasts 61313
scalar RSUExampleScenario.node[9].nic.mac1609_4 SentPackets 1120
scalar RSUExampleScenario.node[9].nic.mac1609_4 SentAcknowledgements 0
scalar RSUExampleScenario.node[9].nic.mac1609_4 RetriesExceeded 0
scalar RSUExampleScenario.node[9].nic.mac1609_4 SNIRLostPackets 1617
scalar RSUExampleScenario.node[9].nic.mac1609_4 RXTXLostPackets 0
scalar RSUExampleScenario.node[9].nic.mac1609_4 TotalLostPackets 1617
scalar RSUExampleScenario.node[9].nic.mac1609_4 DroppedPacketsInMac 0
scalar RSUExampleScenario.node[9].nic.mac1609_4 TooLittleTime 0
scalar RSUExampleScenario.node[9].nic.mac1609_4 TimesIntoBackoff 1120
scalar RSUExampleScenario.node[9].nic.mac1609_4 SlotsBackoff 1677
scalar RSUExampleScenario.node[9].nic.mac1609_4 NumInternalContention 0
scalar RSUExampleScenario.node[9].nic.mac1609_4 totalBusyTime 6.555232
scalar RSUExampleScenario.node[9].nic.mac1609_4 retriesExceeded:count 0
attr source org_car2x_veins_modules_mac_sigRetriesExceeded
scalar RSUExampleScenario.node[9].nic.mac1609_4 sentAcks:count 0
attr source org_car2x_veins_modules_mac_sigSentAck
scalar RSUExampleScenario.node[9].nic.mac1609_4 sentPackets:count 1120
attr source org_car2x_veins_modules_mac_sigSentPacket
scalar RSUExampleScenario.node[9].nic.mac1609_4 collisions:count 0
attr source org_car2x_veins_modules_mac_sigCollision
scalar RSUExampleScenario.node[9].nic.mac1609_4 channelBusy:timeavg 0.058581161751622
attr source org_car2x_veins_modules_mac_sigChannelBusy
scalar RSUExampleScenario.node[9].veinsmobility startTime 8.1
scalar RSUExampleScenario.node[9].veinsmobility totalTime 111.9
scalar RSUExampleScenario.node[9].veinsmobility stopTime 120
scalar RSUExampleScenario.node[9].veinsmobility minSpeed 0
scalar RSUExampleScenario.node[9].veinsmobility maxSpeed 12.082081296867
scalar RSUExampleScenario.node[9].veinsmobility totalDistance 213.89597148163
scalar RSUExampleScenario.node[9].veinsmobility totalCO2Emission 149.27479002467
scalar RSUExampleScenario.node[10].appl generatedWSMs 1
scalar RSUExampleScenario.node[10].appl receivedWSMs 93
scalar RSUExampleScenario.node[10].appl generatedBSMs 1109
scalar RSUExampleScenario.node[10].appl receivedBSMs 55435
scalar RSUExampleScenario.node[10].appl generatedWSAs 0
scalar RSUExampleScenario.node[10].appl receivedWSAs 0
scalar RSUExampleScenario.node[10].nic.phy80211p busyTime 0.059062939585272
scalar RSUExampleScenario.node[10].nic.mac1609_4 ReceivedUnicastPackets 0
scalar RSUExampleScenario.node[10].nic.mac1609_4 ReceivedBroadcasts 55528
scalar RSUExampleScenario.node[10].nic.mac1609_4 SentPackets 1110
scalar RSUExampleScenario.node[10].nic.mac1609_4 SentAcknowledgements 0
scalar RSUExampleScenario.node[10].nic.mac1609_4 RetriesExceeded 0
scalar RSUExampleScenario.node[10].nic.mac1609_4 SNIRLostPackets 7312
scalar RSUExampleScenario.node[10].nic.mac1609_4 RXTXLostPackets 0
scalar RSUExampleScenario.node[10].nic.mac1609_4 TotalLostPackets 7312
scalar RSUExampleScenario.node[10].nic.mac1609_4 DroppedPacketsInMac 0
scalar RSUExampleScenario.node[10].nic.mac1609_4 TooLittleTime 0
scalar RSUExampleScenario.node[10].nic.mac1609_4 TimesIntoBackoff 1110
scalar RSUExampleScenario.node[10].nic.mac1609_4 SlotsBackoff 1666
scalar RSUExampleScenario.node[10].nic.mac1609_4 NumInternalContention 0
scalar RSUExampleScenario.node[10].nic.mac1609_4 totalBusyTime 6.544822
scalar RSUExampleScenario.node[10].nic.mac1609_4 retriesExceeded:count 0
attr source org_car2x_veins_modules_mac_sigRetriesExceeded
scalar RSUExampleScenario.node[10].nic.mac1609_4 sentAcks:count 0
attr source org_car2x_veins_modules_mac_sigSentAck
scalar RSUExampleScenario.node[10].nic.mac1609_4 sentPackets:count 1110
attr source org_car2x_veins_modules_mac_sigSentPacket
scalar RSUExampleScenario.node[10].nic.mac1609_4 collisions:count 0
attr source org_car2x_veins_modules_mac_sigCollision
scalar RSUExampleScenario.node[10].nic.mac1609_4 channelBusy:timeavg 0.059015527502312
attr source org_car2x_veins_modules_mac_sigChannelBusy
scalar RSUExampleScenario.node[10].veinsmobility startTime 9.1
scalar RSUExampleScenario.node[10].veinsmobility totalTime 110.9
scalar RSUExampleScenario.node[10].veinsmobility stopTime 120
scalar RSUExampleScenario.node[10].veinsmobility minSpeed 0.0045526510776415
scalar RSUExampleScenario.node[10].veinsmobility maxSpeed 9.4293119534963
scalar RSUExampleScenario.node[10].veinsmobility totalDistance 739.70133300359
scalar RSUExampleScenario.node[10].veinsmobility totalCO2Emission 223.40861956625
scalar RSUExampleScenario.node[12].appl generatedWSMs 1
scalar RSUExampleScenario.node[12].appl receivedWSMs 113
scalar RSUExampleScenario.node[12].appl generatedBSMs 1084
scalar RSUExampleScenario.node[12].appl receivedBSMs 60814
scalar RSUExampleScenario.node[12].appl generatedWSAs 0
scalar RSUExampleScenario.node[12].appl receivedWSAs 0
scalar RSUExampleScenario.node[12].nic.phy80211p busyTime 0.060163173431795
scalar RSUExampleScenario.node[12].nic.mac1609_4 ReceivedUnicastPackets 0
scalar RSUExampleScenario.node[12].nic.mac1609_4 ReceivedBroadcasts 60927
scalar RSUExampleScenario.node[12].nic.mac1609_4 SentPackets 1085
scalar RSUExampleScenario.node[12].nic.mac1609_4 SentAcknowledgements 0
scalar RSUExampleScenario.node[12].nic.mac1609_4 RetriesExceeded 0
scalar RSUExampleScenario.node[12].nic.mac1609_4 SNIRLostPackets 1640
scalar RSUExampleScenario.node[12].nic.mac1609_4 RXTXLostPackets 5
scalar RSUExampleScenario.node[12].nic.mac1609_4 TotalLostPackets 1645
scalar RSUExampleScenario.node[12].nic.mac1609_4 DroppedPacketsInMac 0
scalar RSUExampleScenario.node[12].nic.mac1609_4 TooLittleTime 0
scalar RSUExampleScenario.node[12].nic.mac1609_4 TimesIntoBackoff 1247
scalar RSUExampleScenario.node[12].nic.mac1609_4 SlotsBackoff 1859
scalar RSUExampleScenario.node[12].nic.mac1609_4 NumInternalContention 0
scalar RSUExampleScenario.node[12].nic.mac1609_4 totalBusyTime 6.514325
scalar RSUExampleScenario.node[12].nic.mac1609_4 retriesExceeded:count 0
attr source org_car2x_veins_modules_mac_sigRetriesExceeded
scalar RSUExampleScenario.node[12].nic.mac1609_4 sentAcks:count 0
attr source org_car2x_veins_modules_mac_sigSentAck
scalar RSUExampleScenario.node[12].nic.mac1609_4 sentPackets:count 1085
attr source org_car2x_veins_modules_mac_sigSentPacket
scalar RSUExampleScenario.node[12].nic.mac1609_4 collisions:count 0
attr source org_car2x_veins_modules_mac_sigCollision
scalar RSUExampleScenario.node[12].nic.mac1609_4 channelBusy:timeavg 0.060095249077549
attr source org_car2x_veins_modules_mac_sigChannelBusy
scalar RSUExampleScenario.node[12].veinsmobility startTime 11.6
scalar RSUExampleScenario.node[12].veinsmobility totalTime 108.4
scalar RSUExampleScenario.node[12].veinsmobility stopTime 120
scalar RSUExampleScenario.node[12].veinsmobility minSpeed 0
scalar RSUExampleScenario.node[12].veinsmobility maxSpeed 9.3170958176493
scalar RSUExampleScenario.node[12].veinsmobility totalDistance 206.39496215363
scalar RSUExampleScenario.node[12].veinsmobility totalCO2Emission 140.90608193074
scalar RSUExampleScenario.node[13].appl generatedWSMs 1
scalar RSUExampleScenario.node[13].appl receivedWSMs 98
scalar RSUExampleScenario.node[13].appl generatedBSMs 1079
scalar RSUExampleScenario.node[13].appl receivedBSMs 55801
scalar RSUExampleScenario.node[13].appl generatedWSAs 0
scalar RSUExampleScenario.node[13].appl receivedWSAs 0
scalar RSUExampleScenario.node[13].nic.phy80211p busyTime 0.060155699722025
scalar RSUExampleScenario.node[13].nic.mac1609_4 ReceivedUnicastPackets 0
scalar RSUExampleScenario.node[13].nic.mac1609_4 ReceivedBroadcasts 55899
scalar RSUExampleScenario.node[13].nic.mac1609_4 SentPackets 1080
scalar RSUExampleScenario.node[13].nic.mac1609_4 SentAcknowledgements 0
scalar RSUExampleScenario.node[13].nic.mac1609_4 RetriesExceeded 0
scalar RSUExampleScenario.node[13].nic.mac1609_4 SNIRLostPackets 6371
scalar RSUExampleScenario.node[13].nic.mac1609_4 RXTXLostPackets 242
scalar RSUExampleScenario.node[13].nic.mac1609_4 TotalLostPackets 6613
scalar RSUExampleScenario.node[13].nic.mac1609_4 DroppedPacketsInMac 0
scalar RSUExampleScenario.node[13].nic.mac1609_4 TooLittleTime 0
scalar RSUExampleScenario.node[13].nic.mac1609_4 TimesIntoBackoff 1310
scalar RSUExampleScenario.node[13].nic.mac1609_4 SlotsBackoff 1896
scalar RSUExampleScenario.node[13].nic.mac1609_4 NumInternalContention 0
scalar RSUExampleScenario.node[13].nic.mac1609_4 totalBusyTime 6.50756
scalar RSUExampleScenario.node[13].nic.mac1609_4 retriesExceeded:count 0
attr source org_car2x_veins_modules_mac_sigRetriesExceeded
scalar RSUExampleScenario.node[13].nic.mac1609_4 sentAcks:count 0
attr source org_car2x_veins_modules_mac_sigSentAck
scalar RSUExampleScenario.node[13].nic.mac1609_4 sentPackets:count 1080
attr source org_car2x_veins_modules_mac_sigSentPacket
scalar RSUExampleScenario.node[13].nic.mac1609_4 collisions:count 0
attr source org_car2x_veins_modules_mac_sigCollision
scalar RSUExampleScenario.node[13].nic.mac1609_4 channelBusy:timeavg 0.060311028730365
attr source org_car2x_veins_modules_mac_sigChannelBusy
scalar RSUExampleScenario.node[13].veinsmobility startTime 12.1
scalar RSUExampleScenario.node[13].veinsmobility totalTime 107.9
scalar RSUExampleScenario.node[13].veinsmobility stopTime 120
scalar RSUExampleScenario.node[13].veinsmobility minSpeed 0.021220840383416
scalar RSUExampleScenario.node[13].veinsmobility maxSpeed 10.369328546384
scalar RSUExampleScenario.node[13].veinsmobility totalDistance 723.85317802504
scalar RSUExampleScenario.node[13].veinsmobility totalCO2Emission 222.5686205774
scalar RSUExampleScenario.node[15].appl generatedWSMs 1
scalar RSUExampleScenario.node[15].appl receivedWSMs 102
scalar RSUExampleScenario.node[15].appl generatedBSMs 1049
scalar RSUExampleScenario.node[15].appl receivedBSMs 56730
scalar RSUExampleScenario.node[15].appl generatedWSAs 0
scalar RSUExampleScenario.node[15].appl receivedWSAs 0
scalar RSUExampleScenario.node[15].nic.phy80211p busyTime 0.061714470924751
scalar RSUExampleScenario.node[15].nic.mac1609_4 ReceivedUnicastPackets 0
scalar RSUExampleScenario.node[15].nic.mac1609_4 ReceivedBroadcasts 56832
scalar RSUExampleScenario.node[15].nic.mac1609_4 SentPackets 1050
scalar RSUExampleScenario.node[15].nic.mac1609_4 SentAcknowledgements 0
scalar RSUExampleScenario.node[15].nic.mac1609_4 RetriesExceeded 0
scalar RSUExampleScenario.node[15].nic.mac1609_4 SNIRLostPackets 5275
scalar RSUExampleScenario.node[15].nic.mac1609_4 RXTXLostPackets 0
scalar RSUExampleScenario.node[15].nic.mac1609_4 TotalLostPackets 5275
scalar RSUExampleScenario.node[15].nic.mac1609_4 DroppedPacketsInMac 0
scalar RSUExampleScenario.node[15].nic.mac1609_4 TooLittleTime 0
scalar RSUExampleScenario.node[15].nic.mac1609_4 TimesIntoBackoff 1050
scalar RSUExampleScenario.node[15].nic.mac1609_4 SlotsBackoff 1531
scalar RSUExampleScenario.node[15].nic.mac1609_4 NumInternalContention 0
scalar RSUExampleScenario.node[15].nic.mac1609_4 totalBusyTime 6.46229
scalar RSUExampleScenario.node[15].nic.mac1609_4 retriesExceeded:count 0
attr source org_car2x_veins_modules_mac_sigRetriesExceeded
scalar RSUExampleScenario.node[15].nic.mac1609_4 sentAcks:count 0
attr source org_car2x_veins_modules_mac_sigSentAck
scalar RSUExampleScenario.node[15].nic.mac1609_4 sentPackets:count 1050
attr source org_car2x_veins_modules_mac_sigSentPacket
scalar RSUExampleScenario.node[15].nic.mac1609_4 collisions:count 0
attr source org_car2x_veins_modules_mac_sigCollision
scalar RSUExampleScenario.node[15].nic.mac1609_4 channelBusy:timeavg 0.061604289799868
attr source org_car2x_veins_modules_mac_sigChannelBusy
scalar RSUExampleScenario.node[15].veinsmobility startTime 15.1
scalar RSUExampleScenario.node[15].veinsmobility totalTime 104.9
scalar RSUExampleScenario.node[15].veinsmobility stopTime 120
scalar RSUExampleScenario.node[15].veinsmobility minSpeed 0.17917133540713
scalar RSUExampleScenario.node[15].veinsmobility maxSpeed 7.2419719249471
scalar RSUExampleScenario.node[15].veinsmobility totalDistance 682.4541648131
scalar RSUExampleScenario.node[15].veinsmobility totalCO2Emission 201.47413180305
scalar RSUExampleScenario.node[16].appl generatedWSMs 1
scalar RSUExampleScenario.node[16].appl receivedWSMs 113
scalar RSUExampleScenario.node[16].appl generatedBSMs 1043
scalar RSUExampleScenario.node[16].appl receivedBSMs 60237
scalar RSUExampleScenario.node[16].appl generatedWSAs 0
scalar RSUExampleScenario.node[16].appl receivedWSAs 0
scalar RSUExampleScenario.node[16].nic.phy80211p busyTime 0.061979750719141
scalar RSUExampleScenario.node[16].nic.mac1609_4 ReceivedUnicastPackets 0
scalar RSUExampleScenario.node[16].nic.mac1609_4 ReceivedBroadcasts 60350
scalar RSUExampleScenario.node[16].nic.mac1609_4 SentPackets 1044
scalar RSUExampleScenario.node[16].nic.mac1609_4 SentAcknowledgements 0
scalar RSUExampleScenario.node[16].nic.mac1609_4 RetriesExceeded 0
scalar RSUExampleScenario.node[16].nic.mac1609_4 SNIRLostPackets 1667
scalar RSUExampleScenario.node[16].nic.mac1609_4 RXTXLostPackets 0
scalar RSUExampleScenario.node[16].nic.mac1609_4 TotalLostPackets 1667
scalar RSUExampleScenario.node[16].nic.mac1609_4 DroppedPacketsInMac 0
scalar RSUExampleScenario.node[16].nic.mac1609_4 TooLittleTime 0
scalar RSUExampleScenario.node[16].nic.mac1609_4 TimesIntoBackoff 1044
scalar RSUExampleScenario.node[16].nic.mac1609_4 SlotsBackoff 1555
scalar RSUExampleScenario.node[16].nic.mac1609_4 NumInternalContention 0
scalar RSUExampleScenario.node[16].nic.mac1609_4 totalBusyTime 6.45230024588
scalar RSUExampleScenario.node[16].nic.mac1609_4 retriesExceeded:count 0
attr source org_car2x_veins_modules_mac_sigRetriesExceeded
scalar RSUExampleScenario.node[16].nic.mac1609_4 sentAcks:count 0
attr source org_car2x_veins_modules_mac_sigSentAck
scalar RSUExampleScenario.node[16].nic.mac1609_4 sentPackets:count 1044
attr source org_car2x_veins_modules_mac_sigSentPacket
scalar RSUExampleScenario.node[16].nic.mac1609_4 collisions:count 0
attr source org_car2x_veins_modules_mac_sigCollision
scalar RSUExampleScenario.node[16].nic.mac1609_4 channelBusy:timeavg 0.061862897851258
attr source org_car2x_veins_modules_mac_sigChannelBusy
scalar RSUExampleScenario.node[16].veinsmobility startTime 15.7
scalar RSUExampleScenario.node[16].veinsmobility totalTime 104.3
scalar RSUExampleScenario.node[16].veinsmobility stopTime 120
scalar RSUExampleScenario.node[16].veinsmobility minSpeed 0
scalar RSUExampleScenario.node[16].veinsmobility maxSpeed 10.409170515073
scalar RSUExampleScenario.node[16].veinsmobility totalDistance 198.89395239156
scalar RSUExampleScenario.node[16].veinsmobility totalCO2Emission 138.32364704655
scalar RSUExampleScenario.node[18].appl generatedWSMs 1
scalar RSUExampleScenario.node[18].appl receivedWSMs 105
scalar RSUExampleScenario.node[18].appl generatedBSMs 1019
scalar RSUExampleScenario.node[18].appl receivedBSMs 56700
scalar RSUExampleScenario.node[18].appl generatedWSAs 0
scalar RSUExampleScenario.node[18].appl receivedWSAs 0
scalar RSUExampleScenario.node[18].nic.phy80211p busyTime 0.063043532875429
scalar RSUExampleScenario.node[18].nic.mac1609_4 ReceivedUnicastPackets 0
scalar RSUExampleScenario.node[18].nic.mac1609_4 ReceivedBroadcasts 56805
scalar RSUExampleScenario.node[18].nic.mac1609_4 SentPackets 1020
scalar RSUExampleScenario.node[18].nic.mac1609_4 SentAcknowledgements 0
scalar RSUExampleScenario.node[18].nic.mac1609_4 RetriesExceeded 0
scalar RSUExampleScenario.node[18].nic.mac1609_4 SNIRLostPackets 4824
scalar RSUExampleScenario.node[18].nic.mac1609_4 RXTXLostPackets 0
scalar RSUExampleScenario.node[18].nic.mac1609_4 TotalLostPackets 4824
scalar RSUExampleScenario.node[18].nic.mac1609_4 DroppedPacketsInMac 0
scalar RSUExampleScenario.node[18].nic.mac1609_4 TooLittleTime 0
scalar RSUExampleScenario.node[18].nic.mac1609_4 TimesIntoBackoff 1020
scalar RSUExampleScenario.node[18].nic.mac1609_4 SlotsBackoff 1512
scalar RSUExampleScenario.node[18].nic.mac1609_4 NumInternalContention 0
scalar RSUExampleScenario.node[18].nic.mac1609_4 totalBusyTime 6.409428
scalar RSUExampleScenario.node[18].nic.mac1609_4 retriesExceeded:count 0
attr source org_car2x_veins_modules_mac_sigRetriesExceeded
scalar RSUExampleScenario.node[18].nic.mac1609_4 sentAcks:count 0
attr source org_car2x_veins_modules_mac_sigSentAck
scalar RSUExampleScenario.node[18].nic.mac1609_4 sentPackets:count 1020
attr source org_car2x_veins_modules_mac_sigSentPacket
scalar RSUExampleScenario.node[18].nic.mac1609_4 collisions:count 0
attr source org_car2x_veins_modules_mac_sigCollision
scalar RSUExampleScenario.node[18].nic.mac1609_4 channelBusy:timeavg 0.062899195289559
attr source org_car2x_veins_modules_mac_sigChannelBusy
scalar RSUExampleScenario.node[18].veinsmobility startTime 18.1
scalar RSUExampleScenario.node[18].veinsmobility totalTime 101.9
scalar RSUExampleScenario.node[18].veinsmobility stopTime 120
scalar RSUExampleScenario.node[18].veinsmobility minSpeed 0.45434607814584
scalar RSUExampleScenario.node[18].veinsmobility maxSpeed 8.849319625172
scalar RSUExampleScenario.node[18].veinsmobility totalDistance 667.4415446121
scalar RSUExampleScenario.node[18].veinsmobility totalCO2Emission 205.74430457723
scalar RSUExampleScenario.node[19].appl generatedWSMs 1
scalar RSUExampleScenario.node[19].appl receivedWSMs 113
scalar RSUExampleScenario.node[19].appl generatedBSMs 1001
scalar RSUExampleScenario.node[19].appl receivedBSMs 59549
scalar RSUExampleScenario.node[19].appl generatedWSAs 0
scalar RSUExampleScenario.node[19].appl receivedWSAs 0
scalar RSUExampleScenario.node[19].nic.phy80211p busyTime 0.063840559440621
scalar RSUExampleScenario.node[19].nic.mac1609_4 ReceivedUnicastPackets 0
scalar RSUExampleScenario.node[19].nic.mac1609_4 ReceivedBroadcasts 59662
scalar RSUExampleScenario.node[19].nic.mac1609_4 SentPackets 1002
scalar RSUExampleScenario.node[19].nic.mac1609_4 SentAcknowledgements 0
scalar RSUExampleScenario.node[19].nic.mac1609_4 RetriesExceeded 0
scalar RSUExampleScenario.node[19].nic.mac1609_4 SNIRLostPackets 1643
scalar RSUExampleScenario.node[19].nic.mac1609_4 RXTXLostPackets 0
scalar RSUExampleScenario.node[19].nic.mac1609_4 TotalLostPackets 1643
scalar RSUExampleScenario.node[19].nic.mac1609_4 DroppedPacketsInMac 0
scalar RSUExampleScenario.node[19].nic.mac1609_4 TooLittleTime 0
scalar RSUExampleScenario.node[19].nic.mac1609_4 TimesIntoBackoff 1002
scalar RSUExampleScenario.node[19].nic.mac1609_4 SlotsBackoff 1530
scalar RSUExampleScenario.node[19].nic.mac1609_4 NumInternalContention 0
scalar RSUExampleScenario.node[19].nic.mac1609_4 totalBusyTime 6.373842005309
scalar RSUExampleScenario.node[19].nic.mac1609_4 retriesExceeded:count 0
attr source org_car2x_veins_modules_mac_sigRetriesExceeded
scalar RSUExampleScenario.node[19].nic.mac1609_4 sentAcks:count 0
attr source org_car2x_veins_modules_mac_sigSentAck
scalar RSUExampleScenario.node[19].nic.mac1609_4 sentPackets:count 1002
attr source org_car2x_veins_modules_mac_sigSentPacket
scalar RSUExampleScenario.node[19].nic.mac1609_4 collisions:count 0
attr source org_car2x_veins_modules_mac_sigCollision
scalar RSUExampleScenario.node[19].nic.mac1609_4 channelBusy:timeavg 0.063674745307841
attr source org_car2x_veins_modules_mac_sigChannelBusy
scalar RSUExampleScenario.node[19].veinsmobility startTime 19.9
scalar RSUExampleScenario.node[19].veinsmobility totalTime 100.1
scalar RSUExampleScenario.node[19].veinsmobility stopTime 120
scalar RSUExampleScenario.node[19].veinsmobility minSpeed 0
scalar RSUExampleScenario.node[19].veinsmobility maxSpeed 11.067078600695
scalar RSUExampleScenario.node[19].veinsmobility totalDistance 223.59697990574
scalar RSUExampleScenario.node[19].veinsmobility totalCO2Emission 140.81468521623
scalar RSUExampleScenario.node[20].appl generatedWSMs 1
scalar RSUExampleScenario.node[20].appl receivedWSMs 106
scalar RSUExampleScenario.node[20].appl generatedBSMs 989
scalar RSUExampleScenario.node[20].appl receivedBSMs 56538
scalar RSUExampleScenario.node[20].appl generatedWSAs 0
scalar RSUExampleScenario.node[20].appl receivedWSAs 0
scalar RSUExampleScenario.node[20].nic.phy80211p busyTime 0.064375409504611
scalar RSUExampleScenario.node[20].nic.mac1609_4 ReceivedUnicastPackets 0
scalar RSUExampleScenario.node[20].nic.mac1609_4 ReceivedBroadcasts 56644
scalar RSUExampleScenario.node[20].nic.mac1609_4 SentPackets 990
scalar RSUExampleScenario.node[20].nic.mac1609_4 SentAcknowledgements 0
scalar RSUExampleScenario.node[20].nic.mac1609_4 RetriesExceeded 0
scalar RSUExampleScenario.node[20].nic.mac1609_4 SNIRLostPackets 4433
scalar RSUExampleScenario.node[20].nic.mac1609_4 RXTXLostPackets 0
scalar RSUExampleScenario.node[20].nic.mac1609_4 TotalLostPackets 4433
scalar RSUExampleScenario.node[20].nic.mac1609_4 DroppedPacketsInMac 0
scalar RSUExampleScenario.node[20].nic.mac1609_4 TooLittleTime 0
scalar RSUExampleScenario.node[20].nic.mac1609_4 TimesIntoBackoff 1239
scalar RSUExampleScenario.node[20].nic.mac1609_4 SlotsBackoff 1880
scalar RSUExampleScenario.node[20].nic.mac1609_4 NumInternalContention 0
scalar RSUExampleScenario.node[20].nic.mac1609_4 totalBusyTime 6.34887
scalar RSUExampleScenario.node[20].nic.mac1609_4 retriesExceeded:count 0
attr source org_car2x_veins_modules_mac_sigRetriesExceeded
scalar RSUExampleScenario.node[20].nic.mac1609_4 sentAcks:count 0
attr source org_car2x_veins_modules_mac_sigSentAck
scalar RSUExampleScenario.node[20].nic.mac1609_4 sentPackets:count 990
attr source org_car2x_veins_modules_mac_sigSentPacket
scalar RSUExampleScenario.node[20].nic.mac1609_4 collisions:count 0
attr source org_car2x_veins_modules_mac_sigCollision
scalar RSUExampleScenario.node[20].nic.mac1609_4 channelBusy:timeavg 0.064194843276096
attr source org_car2x_veins_modules_mac_sigChannelBusy
scalar RSUExampleScenario.node[20].veinsmobility startTime 21.1
scalar RSUExampleScenario.node[20].veinsmobility totalTime 98.9
scalar RSUExampleScenario.node[20].veinsmobility stopTime 120
scalar RSUExampleScenario.node[20].veinsmobility minSpeed 0.80919949906803
scalar RSUExampleScenario.node[20].veinsmobility maxSpeed 9.3850088627092
scalar RSUExampleScenario.node[20].veinsmobility totalDistance 652.44079885017
scalar RSUExampleScenario.node[20].veinsmobility totalCO2Emission 200.1498183313
scalar RSUExampleScenario.node[21].appl generatedWSMs 1
scalar RSUExampleScenario.node[21].appl receivedWSMs 113
scalar RSUExampleScenario.node[21].appl generatedBSMs 978
scalar RSUExampleScenario.node[21].appl receivedBSMs 59047
scalar RSUExampleScenario.node[21].appl generatedWSAs 0
scalar RSUExampleScenario.node[21].appl receivedWSAs 0
scalar RSUExampleScenario.node[21].nic.phy80211p busyTime 0.064865521472454
scalar RSUExampleScenario.node[21].nic.mac1609_4 ReceivedUnicastPackets 0
scalar RSUExampleScenario.node[21].nic.mac1609_4 ReceivedBroadcasts 59160
scalar RSUExampleScenario.node[21].nic.mac1609_4 SentPackets 979
scalar RSUExampleScenario.node[21].nic.mac1609_4 SentAcknowledgements 0
scalar RSUExampleScenario.node[21].nic.mac1609_4 RetriesExceeded 0
scalar RSUExampleScenario.node[21].nic.mac1609_4 SNIRLostPackets 1697
scalar RSUExampleScenario.node[21].nic.mac1609_4 RXTXLostPackets 0
scalar RSUExampleScenario.node[21].nic.mac1609_4 TotalLostPackets 1697
scalar RSUExampleScenario.node[21].nic.mac1609_4 DroppedPacketsInMac 0
scalar RSUExampleScenario.node[21].nic.mac1609_4 TooLittleTime 0
scalar RSUExampleScenario.node[21].nic.mac1609_4 TimesIntoBackoff 981
scalar RSUExampleScenario.node[21].nic.mac1609_4 SlotsBackoff 1519
scalar RSUExampleScenario.node[21].nic.mac1609_4 NumInternalContention 0
scalar RSUExampleScenario.node[21].nic.mac1609_4 totalBusyTime 6.324835494416
scalar RSUExampleScenario.node[21].nic.mac1609_4 retriesExceeded:count 0
attr source org_car2x_veins_modules_mac_sigRetriesExceeded
scalar RSUExampleScenario.node[21].nic.mac1609_4 sentAcks:count 0
attr source org_car2x_veins_modules_mac_sigSentAck
scalar RSUExampleScenario.node[21].nic.mac1609_4 sentPackets:count 979
attr source org_car2x_veins_modules_mac_sigSentPacket
scalar RSUExampleScenario.node[21].nic.mac1609_4 collisions:count 0
attr source org_car2x_veins_modules_mac_sigCollision
scalar RSUExampleScenario.node[21].nic.mac1609_4 channelBusy:timeavg 0.064671119574865
attr source org_car2x_veins_modules_mac_sigChannelBusy
scalar RSUExampleScenario.node[21].veinsmobility startTime 22.2
scalar RSUExampleScenario.node[21].veinsmobility totalTime 97.8
scalar RSUExampleScenario.node[21].veinsmobility stopTime 120
scalar RSUExampleScenario.node[21].veinsmobility minSpeed 0
scalar RSUExampleScenario.node[21].veinsmobility maxSpeed 9.3847664229419
scalar RSUExampleScenario.node[21].veinsmobility totalDistance 191.39294278709
scalar RSUExampleScenario.node[21].veinsmobility totalCO2Emission 128.77593377419
scalar RSUExampleScenario.node[22].appl generatedWSMs 1
scalar RSUExampleScenario.node[22].appl receivedWSMs 110
scalar RSUExampleScenario.node[22].appl generatedBSMs 959
scalar RSUExampleScenario.node[22].appl receivedBSMs 56205
scalar RSUExampleScenario.node[22].appl generatedWSAs 0
scalar RSUExampleScenario.node[22].appl receivedWSAs 0
scalar RSUExampleScenario.node[22].nic.phy80211p busyTime 0.065717956204441
scalar RSUExampleScenario.node[22].nic.mac1609_4 ReceivedUnicastPackets 0
scalar RSUExampleScenario.node[22].nic.mac1609_4 ReceivedBroadcasts 56315
scalar RSUExampleScenario.node[22].nic.mac1609_4 SentPackets 960
scalar RSUExampleScenario.node[22].nic.mac1609_4 SentAcknowledgements 0
scalar RSUExampleScenario.node[22].nic.mac1609_4 RetriesExceeded 0
scalar RSUExampleScenario.node[22].nic.mac1609_4 SNIRLostPackets 4143
scalar RSUExampleScenario.node[22].nic.mac1609_4 RXTXLostPackets 0
scalar RSUExampleScenario.node[22].nic.mac1609_4 TotalLostPackets 4143
scalar RSUExampleScenario.node[22].nic.mac1609_4 DroppedPacketsInMac 0
scalar RSUExampleScenario.node[22].nic.mac1609_4 TooLittleTime 0
scalar RSUExampleScenario.node[22].nic.mac1609_4 TimesIntoBackoff 1224
scalar RSUExampleScenario.node[22].nic.mac1609_4 SlotsBackoff 1827
scalar RSUExampleScenario.node[22].nic.mac1609_4 NumInternalContention 0
scalar RSUExampleScenario.node[22].nic.mac1609_4 totalBusyTime 6.281344
scalar RSUExampleScenario.node[22].nic.mac1609_4 retriesExceeded:count 0
attr source org_car2x_veins_modules_mac_sigRetriesExceeded
scalar RSUExampleScenario.node[22].nic.mac1609_4 sentAcks:count 0
attr source org_car2x_veins_modules_mac_sigSentAck
scalar RSUExampleScenario.node[22].nic.mac1609_4 sentPackets:count 960
attr source org_car2x_veins_modules_mac_sigSentPacket
scalar RSUExampleScenario.node[22].nic.mac1609_4 collisions:count 0
attr source org_car2x_veins_modules_mac_sigCollision
scalar RSUExampleScenario.node[22].nic.mac1609_4 channelBusy:timeavg 0.065498894682019
attr source org_car2x_veins_modules_mac_sigChannelBusy
scalar RSUExampleScenario.node[22].veinsmobility startTime 24.1
scalar RSUExampleScenario.node[22].veinsmobility totalTime 95.9
scalar RSUExampleScenario.node[22].veinsmobility stopTime 120
scalar RSUExampleScenario.node[22].veinsmobility minSpeed 1.112594700471
scalar RSUExampleScenario.node[22].veinsmobility maxSpeed 10.32743783128
scalar RSUExampleScenario.node[22].veinsmobility totalDistance 637.42393238118
scalar RSUExampleScenario.node[22].veinsmobility totalCO2Emission 193.02414721284
scalar RSUExampleScenario.node[25].appl generatedWSMs 1
scalar RSUExampleScenario.node[25].appl receivedWSMs 111
scalar RSUExampleScenario.node[25].appl generatedBSMs 929
scalar RSUExampleScenario.node[25].appl receivedBSMs 55749
scalar RSUExampleScenario.node[25].appl generatedWSAs 0
scalar RSUExampleScenario.node[25].appl receivedWSAs 0
scalar RSUExampleScenario.node[25].nic.phy80211p busyTime 0.06706325080738
scalar RSUExampleScenario.node[25].nic.mac1609_4 ReceivedUnicastPackets 0
scalar RSUExampleScenario.node[25].nic.mac1609_4 ReceivedBroadcasts 55860
scalar RSUExampleScenario.node[25].nic.mac1609_4 SentPackets 930
scalar RSUExampleScenario.node[25].nic.mac1609_4 SentAcknowledgements 0
scalar RSUExampleScenario.node[25].nic.mac1609_4 RetriesExceeded 0
scalar RSUExampleScenario.node[25].nic.mac1609_4 SNIRLostPackets 3904
scalar RSUExampleScenario.node[25].nic.mac1609_4 RXTXLostPackets 0
scalar RSUExampleScenario.node[25].nic.mac1609_4 TotalLostPackets 3904
scalar RSUExampleScenario.node[25].nic.mac1609_4 DroppedPacketsInMac 0
scalar RSUExampleScenario.node[25].nic.mac1609_4 TooLittleTime 0
scalar RSUExampleScenario.node[25].nic.mac1609_4 TimesIntoBackoff 930
scalar RSUExampleScenario.node[25].nic.mac1609_4 SlotsBackoff 1406
scalar RSUExampleScenario.node[25].nic.mac1609_4 NumInternalContention 0
scalar RSUExampleScenario.node[25].nic.mac1609_4 totalBusyTime 6.206018
scalar RSUExampleScenario.node[25].nic.mac1609_4 retriesExceeded:count 0
attr source org_car2x_veins_modules_mac_sigRetriesExceeded
scalar RSUExampleScenario.node[25].nic.mac1609_4 sentAcks:count 0
attr source org_car2x_veins_modules_mac_sigSentAck
scalar RSUExampleScenario.node[25].nic.mac1609_4 sentPackets:count 930
attr source org_car2x_veins_modules_mac_sigSentPacket
scalar RSUExampleScenario.node[25].nic.mac1609_4 collisions:count 0
attr source org_car2x_veins_modules_mac_sigCollision
scalar RSUExampleScenario.node[25].nic.mac1609_4 channelBusy:timeavg 0.066803207750328
attr source org_car2x_veins_modules_mac_sigChannelBusy
scalar RSUExampleScenario.node[25].veinsmobility startTime 27.1
scalar RSUExampleScenario.node[25].veinsmobility totalTime 92.9
scalar RSUExampleScenario.node[25].veinsmobility stopTime 120
scalar RSUExampleScenario.node[25].veinsmobility minSpeed 1.4486191156882
scalar RSUExampleScenario.node[25].veinsmobility maxSpeed 11.899727957538
scalar RSUExampleScenario.node[25].veinsmobility totalDistance 622.40395269124
scalar RSUExampleScenario.node[25].veinsmobility totalCO2Emission 190.40318898739
scalar RSUExampleScenario.node[26].appl generatedWSMs 1
scalar RSUExampleScenario.node[26].appl receivedWSMs 113
scalar RSUExampleScenario.node[26].appl generatedBSMs 915
scalar RSUExampleScenario.node[26].appl receivedBSMs 57625
scalar RSUExampleScenario.node[26].appl generatedWSAs 0
scalar RSUExampleScenario.node[26].appl receivedWSAs 0
scalar RSUExampleScenario.node[26].nic.phy80211p busyTime 0.067691540983667
scalar RSUExampleScenario.node[26].nic.mac1609_4 ReceivedUnicastPackets 0
scalar RSUExampleScenario.node[26].nic.mac1609_4 ReceivedBroadcasts 57738
scalar RSUExampleScenario.node[26].nic.mac1609_4 SentPackets 916
scalar RSUExampleScenario.node[26].nic.mac1609_4 SentAcknowledgements 0
scalar RSUExampleScenario.node[26].nic.mac1609_4 RetriesExceeded 0
scalar RSUExampleScenario.node[26].nic.mac1609_4 SNIRLostPackets 1676
scalar RSUExampleScenario.node[26].nic.mac1609_4 RXTXLostPackets 0
scalar RSUExampleScenario.node[26].nic.mac1609_4 TotalLostPackets 1676
scalar RSUExampleScenario.node[26].nic.mac1609_4 DroppedPacketsInMac 0
scalar RSUExampleScenario.node[26].nic.mac1609_4 TooLittleTime 0
scalar RSUExampleScenario.node[26].nic.mac1609_4 TimesIntoBackoff 916
scalar RSUExampleScenario.node[26].nic.mac1609_4 SlotsBackoff 1470
scalar RSUExampleScenario.node[26].nic.mac1609_4 NumInternalContention 0
scalar RSUExampleScenario.node[26].nic.mac1609_4 totalBusyTime 6.168148011714
scalar RSUExampleScenario.node[26].nic.mac1609_4 retriesExceeded:count 0
attr source org_car2x_veins_modules_mac_sigRetriesExceeded
scalar RSUExampleScenario.node[26].nic.mac1609_4 sentAcks:count 0
attr source org_car2x_veins_modules_mac_sigSentAck
scalar RSUExampleScenario.node[26].nic.mac1609_4 sentPackets:count 916
attr source org_car2x_veins_modules_mac_sigSentPacket
scalar RSUExampleScenario.node[26].nic.mac1609_4 collisions:count 0
attr source org_car2x_veins_modules_mac_sigCollision
scalar RSUExampleScenario.node[26].nic.mac1609_4 channelBusy:timeavg 0.067411453679992
attr source org_car2x_veins_modules_mac_sigChannelBusy
scalar RSUExampleScenario.node[26].veinsmobility startTime 28.5
scalar RSUExampleScenario.node[26].veinsmobility totalTime 91.5
scalar RSUExampleScenario.node[26].veinsmobility stopTime 120
scalar RSUExampleScenario.node[26].veinsmobility minSpeed 0
scalar RSUExampleScenario.node[26].veinsmobility maxSpeed 7.492394086107
scalar RSUExampleScenario.node[26].veinsmobility totalDistance 216.09597022441
scalar RSUExampleScenario.node[26].veinsmobility totalCO2Emission 125.10743637035
scalar RSUExampleScenario.node[27].appl generatedWSMs 1
scalar RSUExampleScenario.node[27].appl receivedWSMs 112
scalar RSUExampleScenario.node[27].appl generatedBSMs 899
scalar RSUExampleScenario.node[27].appl receivedBSMs 55190
scalar RSUExampleScenario.node[27].appl generatedWSAs 0
scalar RSUExampleScenario.node[27].appl receivedWSAs 0
scalar RSUExampleScenario.node[27].nic.phy80211p busyTime 0.068415038932207
scalar RSUExampleScenario.node[27].nic.mac1609_4 ReceivedUnicastPackets 0
scalar RSUExampleScenario.node[27].nic.mac1609_4 ReceivedBroadcasts 55302
scalar RSUExampleScenario.node[27].nic.mac1609_4 SentPackets 900
scalar RSUExampleScenario.node[27].nic.mac1609_4 SentAcknowledgements 0
scalar RSUExampleScenario.node[27].nic.mac1609_4 RetriesExceeded 0
scalar RSUExampleScenario.node[27].nic.mac1609_4 SNIRLostPackets 3696
scalar RSUExampleScenario.node[27].nic.mac1609_4 RXTXLostPackets 0
scalar RSUExampleScenario.node[27].nic.mac1609_4 TotalLostPackets 3696
scalar RSUExampleScenario.node[27].nic.mac1609_4 DroppedPacketsInMac 0
scalar RSUExampleScenario.node[27].nic.mac1609_4 TooLittleTime 0
scalar RSUExampleScenario.node[27].nic.mac1609_4 TimesIntoBackoff 902
scalar RSUExampleScenario.node[27].nic.mac1609_4 SlotsBackoff 1392
scalar RSUExampleScenario.node[27].nic.mac1609_4 NumInternalContention 0
scalar RSUExampleScenario.node[27].nic.mac1609_4 totalBusyTime 6.123204
scalar RSUExampleScenario.node[27].nic.mac1609_4 retriesExceeded:count 0
attr source org_car2x_veins_modules_mac_sigRetriesExceeded
scalar RSUExampleScenario.node[27].nic.mac1609_4 sentAcks:count 0
attr source org_car2x_veins_modules_mac_sigSentAck
scalar RSUExampleScenario.node[27].nic.mac1609_4 sentPackets:count 900
attr source org_car2x_veins_modules_mac_sigSentPacket
scalar RSUExampleScenario.node[27].nic.mac1609_4 collisions:count 0
attr source org_car2x_veins_modules_mac_sigCollision
scalar RSUExampleScenario.node[27].nic.mac1609_4 channelBusy:timeavg 0.068111279199168
attr source org_car2x_veins_modules_mac_sigChannelBusy
scalar RSUExampleScenario.node[27].veinsmobility startTime 30.1
scalar RSUExampleScenario.node[27].veinsmobility totalTime 89.9
scalar RSUExampleScenario.node[27].veinsmobility stopTime 120
scalar RSUExampleScenario.node[27].veinsmobility minSpeed 1.7984488843073
scalar RSUExampleScenario.node[27].veinsmobility maxSpeed 10.293501184446
scalar RSUExampleScenario.node[27].veinsmobility totalDistance 607.39610015316
[...]
scalar RSUExampleScenario.node[108].nic.mac1609_4 ReceivedUnicastPackets 0
scalar RSUExampleScenario.node[108].nic.mac1609_4 ReceivedBroadcasts 7608
scalar RSUExampleScenario.node[108].nic.mac1609_4 SentPackets 84
scalar RSUExampleScenario.node[108].nic.mac1609_4 SentAcknowledgements 0
scalar RSUExampleScenario.node[108].nic.mac1609_4 RetriesExceeded 0
scalar RSUExampleScenario.node[108].nic.mac1609_4 SNIRLostPackets 783
scalar RSUExampleScenario.node[108].nic.mac1609_4 RXTXLostPackets 0
scalar RSUExampleScenario.node[108].nic.mac1609_4 TotalLostPackets 783
scalar RSUExampleScenario.node[108].nic.mac1609_4 DroppedPacketsInMac 0
scalar RSUExampleScenario.node[108].nic.mac1609_4 TooLittleTime 0
scalar RSUExampleScenario.node[108].nic.mac1609_4 TimesIntoBackoff 84
scalar RSUExampleScenario.node[108].nic.mac1609_4 SlotsBackoff 122
scalar RSUExampleScenario.node[108].nic.mac1609_4 NumInternalContention 0
scalar RSUExampleScenario.node[108].nic.mac1609_4 totalBusyTime 0.871612
scalar RSUExampleScenario.node[108].nic.mac1609_4 retriesExceeded:count 0
attr source org_car2x_veins_modules_mac_sigRetriesExceeded
scalar RSUExampleScenario.node[108].nic.mac1609_4 sentAcks:count 0
attr source org_car2x_veins_modules_mac_sigSentAck
scalar RSUExampleScenario.node[108].nic.mac1609_4 sentPackets:count 84
attr source org_car2x_veins_modules_mac_sigSentPacket
scalar RSUExampleScenario.node[108].nic.mac1609_4 collisions:count 0
attr source org_car2x_veins_modules_mac_sigCollision
scalar RSUExampleScenario.node[108].nic.mac1609_4 channelBusy:timeavg 0.1050134939759
attr source org_car2x_veins_modules_mac_sigChannelBusy
scalar RSUExampleScenario.node[108].veinsmobility startTime 111.7
scalar RSUExampleScenario.node[108].veinsmobility totalTime 8.3
scalar RSUExampleScenario.node[108].veinsmobility stopTime 120
scalar RSUExampleScenario.node[108].veinsmobility minSpeed 2.0571709223643
scalar RSUExampleScenario.node[108].veinsmobility maxSpeed 5.2027742705289
scalar RSUExampleScenario.node[108].veinsmobility totalDistance 35.660638755222
scalar RSUExampleScenario.node[108].veinsmobility totalCO2Emission 14.196172434415
scalar RSUExampleScenario.node[109].appl generatedWSMs 1
scalar RSUExampleScenario.node[109].appl receivedWSMs 8
scalar RSUExampleScenario.node[109].appl generatedBSMs 82
scalar RSUExampleScenario.node[109].appl receivedBSMs 7506
scalar RSUExampleScenario.node[109].appl generatedWSAs 0
scalar RSUExampleScenario.node[109].appl receivedWSAs 0
scalar RSUExampleScenario.node[109].nic.phy80211p busyTime 0.10529170731707
scalar RSUExampleScenario.node[109].nic.mac1609_4 ReceivedUnicastPackets 0
scalar RSUExampleScenario.node[109].nic.mac1609_4 ReceivedBroadcasts 7514
scalar RSUExampleScenario.node[109].nic.mac1609_4 SentPackets 83
scalar RSUExampleScenario.node[109].nic.mac1609_4 SentAcknowledgements 0
scalar RSUExampleScenario.node[109].nic.mac1609_4 RetriesExceeded 0
scalar RSUExampleScenario.node[109].nic.mac1609_4 SNIRLostPackets 778
scalar RSUExampleScenario.node[109].nic.mac1609_4 RXTXLostPackets 0
scalar RSUExampleScenario.node[109].nic.mac1609_4 TotalLostPackets 778
scalar RSUExampleScenario.node[109].nic.mac1609_4 DroppedPacketsInMac 0
scalar RSUExampleScenario.node[109].nic.mac1609_4 TooLittleTime 0
scalar RSUExampleScenario.node[109].nic.mac1609_4 TimesIntoBackoff 83
scalar RSUExampleScenario.node[109].nic.mac1609_4 SlotsBackoff 121
scalar RSUExampleScenario.node[109].nic.mac1609_4 NumInternalContention 0
scalar RSUExampleScenario.node[109].nic.mac1609_4 totalBusyTime 0.861315
scalar RSUExampleScenario.node[109].nic.mac1609_4 retriesExceeded:count 0
attr source org_car2x_veins_modules_mac_sigRetriesExceeded
scalar RSUExampleScenario.node[109].nic.mac1609_4 sentAcks:count 0
attr source org_car2x_veins_modules_mac_sigSentAck
scalar RSUExampleScenario.node[109].nic.mac1609_4 sentPackets:count 83
attr source org_car2x_veins_modules_mac_sigSentPacket
scalar RSUExampleScenario.node[109].nic.mac1609_4 collisions:count 0
attr source org_car2x_veins_modules_mac_sigCollision
scalar RSUExampleScenario.node[109].nic.mac1609_4 channelBusy:timeavg 0.10503841463414
attr source org_car2x_veins_modules_mac_sigChannelBusy
scalar RSUExampleScenario.node[109].veinsmobility startTime 111.8
scalar RSUExampleScenario.node[109].veinsmobility totalTime 8.2
scalar RSUExampleScenario.node[109].veinsmobility stopTime 120
scalar RSUExampleScenario.node[109].veinsmobility minSpeed 2.0729230042297
scalar RSUExampleScenario.node[109].veinsmobility maxSpeed 3.9901865564072
scalar RSUExampleScenario.node[109].veinsmobility totalDistance 28.09868649589
scalar RSUExampleScenario.node[109].veinsmobility totalCO2Emission 12.908748192089
scalar RSUExampleScenario.node[110].appl generatedWSMs 1
scalar RSUExampleScenario.node[110].appl receivedWSMs 7
scalar RSUExampleScenario.node[110].appl generatedBSMs 59
scalar RSUExampleScenario.node[110].appl receivedBSMs 5457
scalar RSUExampleScenario.node[110].appl generatedWSAs 0
scalar RSUExampleScenario.node[110].appl receivedWSAs 0
scalar RSUExampleScenario.node[110].nic.phy80211p busyTime 0.10591457627118
scalar RSUExampleScenario.node[110].nic.mac1609_4 ReceivedUnicastPackets 0
scalar RSUExampleScenario.node[110].nic.mac1609_4 ReceivedBroadcasts 5464
scalar RSUExampleScenario.node[110].nic.mac1609_4 SentPackets 60
scalar RSUExampleScenario.node[110].nic.mac1609_4 SentAcknowledgements 0
scalar RSUExampleScenario.node[110].nic.mac1609_4 RetriesExceeded 0
scalar RSUExampleScenario.node[110].nic.mac1609_4 SNIRLostPackets 536
scalar RSUExampleScenario.node[110].nic.mac1609_4 RXTXLostPackets 0
scalar RSUExampleScenario.node[110].nic.mac1609_4 TotalLostPackets 536
scalar RSUExampleScenario.node[110].nic.mac1609_4 DroppedPacketsInMac 0
scalar RSUExampleScenario.node[110].nic.mac1609_4 TooLittleTime 0
scalar RSUExampleScenario.node[110].nic.mac1609_4 TimesIntoBackoff 60
scalar RSUExampleScenario.node[110].nic.mac1609_4 SlotsBackoff 94
scalar RSUExampleScenario.node[110].nic.mac1609_4 NumInternalContention 0
scalar RSUExampleScenario.node[110].nic.mac1609_4 totalBusyTime 0.623732
scalar RSUExampleScenario.node[110].nic.mac1609_4 retriesExceeded:count 0
attr source org_car2x_veins_modules_mac_sigRetriesExceeded
scalar RSUExampleScenario.node[110].nic.mac1609_4 sentAcks:count 0
attr source org_car2x_veins_modules_mac_sigSentAck
scalar RSUExampleScenario.node[110].nic.mac1609_4 sentPackets:count 60
attr source org_car2x_veins_modules_mac_sigSentPacket
scalar RSUExampleScenario.node[110].nic.mac1609_4 collisions:count 0
attr source org_car2x_veins_modules_mac_sigCollision
scalar RSUExampleScenario.node[110].nic.mac1609_4 channelBusy:timeavg 0.10571728813559
attr source org_car2x_veins_modules_mac_sigChannelBusy
scalar RSUExampleScenario.node[110].veinsmobility startTime 114.1
scalar RSUExampleScenario.node[110].veinsmobility totalTime 5.9
scalar RSUExampleScenario.node[110].veinsmobility stopTime 120
scalar RSUExampleScenario.node[110].veinsmobility minSpeed 9.5942067361199
scalar RSUExampleScenario.node[110].veinsmobility maxSpeed 9.8383145103837
scalar RSUExampleScenario.node[110].veinsmobility totalDistance 57.307647572121
scalar RSUExampleScenario.node[110].veinsmobility totalCO2Emission 13.59068575431
scalar RSUExampleScenario.node[111].appl generatedWSMs 1
scalar RSUExampleScenario.node[111].appl receivedWSMs 7
scalar RSUExampleScenario.node[111].appl generatedBSMs 58
scalar RSUExampleScenario.node[111].appl receivedBSMs 5329
scalar RSUExampleScenario.node[111].appl generatedWSAs 0
scalar RSUExampleScenario.node[111].appl receivedWSAs 0
scalar RSUExampleScenario.node[111].nic.phy80211p busyTime 0.10594758620689
scalar RSUExampleScenario.node[111].nic.mac1609_4 ReceivedUnicastPackets 0
scalar RSUExampleScenario.node[111].nic.mac1609_4 ReceivedBroadcasts 5336
scalar RSUExampleScenario.node[111].nic.mac1609_4 SentPackets 59
scalar RSUExampleScenario.node[111].nic.mac1609_4 SentAcknowledgements 0
scalar RSUExampleScenario.node[111].nic.mac1609_4 RetriesExceeded 0
scalar RSUExampleScenario.node[111].nic.mac1609_4 SNIRLostPackets 564
scalar RSUExampleScenario.node[111].nic.mac1609_4 RXTXLostPackets 0
scalar RSUExampleScenario.node[111].nic.mac1609_4 TotalLostPackets 564
scalar RSUExampleScenario.node[111].nic.mac1609_4 DroppedPacketsInMac 0
scalar RSUExampleScenario.node[111].nic.mac1609_4 TooLittleTime 0
scalar RSUExampleScenario.node[111].nic.mac1609_4 TimesIntoBackoff 117
scalar RSUExampleScenario.node[111].nic.mac1609_4 SlotsBackoff 185
scalar RSUExampleScenario.node[111].nic.mac1609_4 NumInternalContention 0
scalar RSUExampleScenario.node[111].nic.mac1609_4 totalBusyTime 0.613331
scalar RSUExampleScenario.node[111].nic.mac1609_4 retriesExceeded:count 0
attr source org_car2x_veins_modules_mac_sigRetriesExceeded
scalar RSUExampleScenario.node[111].nic.mac1609_4 sentAcks:count 0
attr source org_car2x_veins_modules_mac_sigSentAck
scalar RSUExampleScenario.node[111].nic.mac1609_4 sentPackets:count 59
attr source org_car2x_veins_modules_mac_sigSentPacket
scalar RSUExampleScenario.node[111].nic.mac1609_4 collisions:count 0
attr source org_car2x_veins_modules_mac_sigCollision
scalar RSUExampleScenario.node[111].nic.mac1609_4 channelBusy:timeavg 0.10574672413793
attr source org_car2x_veins_modules_mac_sigChannelBusy
scalar RSUExampleScenario.node[111].veinsmobility startTime 114.2
scalar RSUExampleScenario.node[111].veinsmobility totalTime 5.8
scalar RSUExampleScenario.node[111].veinsmobility stopTime 120
scalar RSUExampleScenario.node[111].veinsmobility minSpeed 1.6024121320627
scalar RSUExampleScenario.node[111].veinsmobility maxSpeed 4.7627466763804
scalar RSUExampleScenario.node[111].veinsmobility totalDistance 24.099098064236
scalar RSUExampleScenario.node[111].veinsmobility totalCO2Emission 9.9337991558076
scalar RSUExampleScenario.node[112].appl generatedWSMs 1
scalar RSUExampleScenario.node[112].appl receivedWSMs 7
scalar RSUExampleScenario.node[112].appl generatedBSMs 57
scalar RSUExampleScenario.node[112].appl receivedBSMs 5216
scalar RSUExampleScenario.node[112].appl generatedWSAs 0
scalar RSUExampleScenario.node[112].appl receivedWSAs 0
scalar RSUExampleScenario.node[112].nic.phy80211p busyTime 0.10565333333333
scalar RSUExampleScenario.node[112].nic.mac1609_4 ReceivedUnicastPackets 0
scalar RSUExampleScenario.node[112].nic.mac1609_4 ReceivedBroadcasts 5223
scalar RSUExampleScenario.node[112].nic.mac1609_4 SentPackets 58
scalar RSUExampleScenario.node[112].nic.mac1609_4 SentAcknowledgements 0
scalar RSUExampleScenario.node[112].nic.mac1609_4 RetriesExceeded 0
scalar RSUExampleScenario.node[112].nic.mac1609_4 SNIRLostPackets 559
scalar RSUExampleScenario.node[112].nic.mac1609_4 RXTXLostPackets 17
scalar RSUExampleScenario.node[112].nic.mac1609_4 TotalLostPackets 576
scalar RSUExampleScenario.node[112].nic.mac1609_4 DroppedPacketsInMac 0
scalar RSUExampleScenario.node[112].nic.mac1609_4 TooLittleTime 0
scalar RSUExampleScenario.node[112].nic.mac1609_4 TimesIntoBackoff 115
scalar RSUExampleScenario.node[112].nic.mac1609_4 SlotsBackoff 186
scalar RSUExampleScenario.node[112].nic.mac1609_4 NumInternalContention 0
scalar RSUExampleScenario.node[112].nic.mac1609_4 totalBusyTime 0.60293
scalar RSUExampleScenario.node[112].nic.mac1609_4 retriesExceeded:count 0
attr source org_car2x_veins_modules_mac_sigRetriesExceeded
scalar RSUExampleScenario.node[112].nic.mac1609_4 sentAcks:count 0
attr source org_car2x_veins_modules_mac_sigSentAck
scalar RSUExampleScenario.node[112].nic.mac1609_4 sentPackets:count 58
attr source org_car2x_veins_modules_mac_sigSentPacket
scalar RSUExampleScenario.node[112].nic.mac1609_4 collisions:count 0
attr source org_car2x_veins_modules_mac_sigCollision
scalar RSUExampleScenario.node[112].nic.mac1609_4 channelBusy:timeavg 0.10577719298245
attr source org_car2x_veins_modules_mac_sigChannelBusy
scalar RSUExampleScenario.node[112].veinsmobility startTime 114.3
scalar RSUExampleScenario.node[112].veinsmobility totalTime 5.7
scalar RSUExampleScenario.node[112].veinsmobility stopTime 120
scalar RSUExampleScenario.node[112].veinsmobility minSpeed 1.7260203216419
scalar RSUExampleScenario.node[112].veinsmobility maxSpeed 3.4391876225028
scalar RSUExampleScenario.node[112].veinsmobility totalDistance 17.199219804309
scalar RSUExampleScenario.node[112].veinsmobility totalCO2Emission 8.6006523126786
scalar RSUExampleScenario.node[113].appl generatedWSMs 1
scalar RSUExampleScenario.node[113].appl receivedWSMs 5
scalar RSUExampleScenario.node[113].appl generatedBSMs 29
scalar RSUExampleScenario.node[113].appl receivedBSMs 2683
scalar RSUExampleScenario.node[113].appl generatedWSAs 0
scalar RSUExampleScenario.node[113].appl receivedWSAs 0
scalar RSUExampleScenario.node[113].nic.phy80211p busyTime 0.10658758620689
scalar RSUExampleScenario.node[113].nic.mac1609_4 ReceivedUnicastPackets 0
scalar RSUExampleScenario.node[113].nic.mac1609_4 ReceivedBroadcasts 2688
scalar RSUExampleScenario.node[113].nic.mac1609_4 SentPackets 30
scalar RSUExampleScenario.node[113].nic.mac1609_4 SentAcknowledgements 0
scalar RSUExampleScenario.node[113].nic.mac1609_4 RetriesExceeded 0
scalar RSUExampleScenario.node[113].nic.mac1609_4 SNIRLostPackets 278
scalar RSUExampleScenario.node[113].nic.mac1609_4 RXTXLostPackets 0
scalar RSUExampleScenario.node[113].nic.mac1609_4 TotalLostPackets 278
scalar RSUExampleScenario.node[113].nic.mac1609_4 DroppedPacketsInMac 0
scalar RSUExampleScenario.node[113].nic.mac1609_4 TooLittleTime 0
scalar RSUExampleScenario.node[113].nic.mac1609_4 TimesIntoBackoff 30
scalar RSUExampleScenario.node[113].nic.mac1609_4 SlotsBackoff 34
scalar RSUExampleScenario.node[113].nic.mac1609_4 NumInternalContention 0
scalar RSUExampleScenario.node[113].nic.mac1609_4 totalBusyTime 0.30947
scalar RSUExampleScenario.node[113].nic.mac1609_4 retriesExceeded:count 0
attr source org_car2x_veins_modules_mac_sigRetriesExceeded
scalar RSUExampleScenario.node[113].nic.mac1609_4 sentAcks:count 0
attr source org_car2x_veins_modules_mac_sigSentAck
scalar RSUExampleScenario.node[113].nic.mac1609_4 sentPackets:count 30
attr source org_car2x_veins_modules_mac_sigSentPacket
scalar RSUExampleScenario.node[113].nic.mac1609_4 collisions:count 0
attr source org_car2x_veins_modules_mac_sigCollision
scalar RSUExampleScenario.node[113].nic.mac1609_4 channelBusy:timeavg 0.10671379310345
attr source org_car2x_veins_modules_mac_sigChannelBusy
scalar RSUExampleScenario.node[113].veinsmobility startTime 117.1
scalar RSUExampleScenario.node[113].veinsmobility totalTime 2.9
scalar RSUExampleScenario.node[113].veinsmobility stopTime 120
scalar RSUExampleScenario.node[113].veinsmobility minSpeed 11.176459971938
scalar RSUExampleScenario.node[113].veinsmobility maxSpeed 12.528829170925
scalar RSUExampleScenario.node[113].veinsmobility totalDistance 34.077291426975
scalar RSUExampleScenario.node[113].veinsmobility totalCO2Emission 6.0322867337854
scalar RSUExampleScenario.node[114].appl generatedWSMs 1
scalar RSUExampleScenario.node[114].appl receivedWSMs 5
scalar RSUExampleScenario.node[114].appl generatedBSMs 29
scalar RSUExampleScenario.node[114].appl receivedBSMs 2671
scalar RSUExampleScenario.node[114].appl generatedWSAs 0
scalar RSUExampleScenario.node[114].appl receivedWSAs 0
scalar RSUExampleScenario.node[114].nic.phy80211p busyTime 0.10658758620689
scalar RSUExampleScenario.node[114].nic.mac1609_4 ReceivedUnicastPackets 0
scalar RSUExampleScenario.node[114].nic.mac1609_4 ReceivedBroadcasts 2676
scalar RSUExampleScenario.node[114].nic.mac1609_4 SentPackets 30
scalar RSUExampleScenario.node[114].nic.mac1609_4 SentAcknowledgements 0
scalar RSUExampleScenario.node[114].nic.mac1609_4 RetriesExceeded 0
scalar RSUExampleScenario.node[114].nic.mac1609_4 SNIRLostPackets 290
scalar RSUExampleScenario.node[114].nic.mac1609_4 RXTXLostPackets 0
scalar RSUExampleScenario.node[114].nic.mac1609_4 TotalLostPackets 290
scalar RSUExampleScenario.node[114].nic.mac1609_4 DroppedPacketsInMac 0
scalar RSUExampleScenario.node[114].nic.mac1609_4 TooLittleTime 0
scalar RSUExampleScenario.node[114].nic.mac1609_4 TimesIntoBackoff 30
scalar RSUExampleScenario.node[114].nic.mac1609_4 SlotsBackoff 41
scalar RSUExampleScenario.node[114].nic.mac1609_4 NumInternalContention 0
scalar RSUExampleScenario.node[114].nic.mac1609_4 totalBusyTime 0.30947
scalar RSUExampleScenario.node[114].nic.mac1609_4 retriesExceeded:count 0
attr source org_car2x_veins_modules_mac_sigRetriesExceeded
scalar RSUExampleScenario.node[114].nic.mac1609_4 sentAcks:count 0
attr source org_car2x_veins_modules_mac_sigSentAck
scalar RSUExampleScenario.node[114].nic.mac1609_4 sentPackets:count 30
attr source org_car2x_veins_modules_mac_sigSentPacket
scalar RSUExampleScenario.node[114].nic.mac1609_4 collisions:count 0
attr source org_car2x_veins_modules_mac_sigCollision
scalar RSUExampleScenario.node[114].nic.mac1609_4 channelBusy:timeavg 0.10671379310345
attr source org_car2x_veins_modules_mac_sigChannelBusy
scalar RSUExampleScenario.node[114].veinsmobility startTime 117.1
scalar RSUExampleScenario.node[114].veinsmobility totalTime 2.9
scalar RSUExampleScenario.node[114].veinsmobility stopTime 120
scalar RSUExampleScenario.node[114].veinsmobility minSpeed 1.4276882548453
scalar RSUExampleScenario.node[114].veinsmobility maxSpeed 4.2390452483212
scalar RSUExampleScenario.node[114].veinsmobility totalDistance 12.042431753703
scalar RSUExampleScenario.node[114].veinsmobility totalCO2Emission 5.6200839152185
scalar RSUExampleScenario.node[115].appl generatedWSMs 1
scalar RSUExampleScenario.node[115].appl receivedWSMs 5
scalar RSUExampleScenario.node[115].appl generatedBSMs 28
scalar RSUExampleScenario.node[115].appl receivedBSMs 2577
scalar RSUExampleScenario.node[115].appl generatedWSAs 0
scalar RSUExampleScenario.node[115].appl receivedWSAs 0
scalar RSUExampleScenario.node[115].nic.phy80211p busyTime 0.10660571428571
scalar RSUExampleScenario.node[115].nic.mac1609_4 ReceivedUnicastPackets 0
scalar RSUExampleScenario.node[115].nic.mac1609_4 ReceivedBroadcasts 2582
scalar RSUExampleScenario.node[115].nic.mac1609_4 SentPackets 29
scalar RSUExampleScenario.node[115].nic.mac1609_4 SentAcknowledgements 0
scalar RSUExampleScenario.node[115].nic.mac1609_4 RetriesExceeded 0
scalar RSUExampleScenario.node[115].nic.mac1609_4 SNIRLostPackets 282
scalar RSUExampleScenario.node[115].nic.mac1609_4 RXTXLostPackets 0
scalar RSUExampleScenario.node[115].nic.mac1609_4 TotalLostPackets 282
scalar RSUExampleScenario.node[115].nic.mac1609_4 DroppedPacketsInMac 0
scalar RSUExampleScenario.node[115].nic.mac1609_4 TooLittleTime 0
scalar RSUExampleScenario.node[115].nic.mac1609_4 TimesIntoBackoff 29
scalar RSUExampleScenario.node[115].nic.mac1609_4 SlotsBackoff 42
scalar RSUExampleScenario.node[115].nic.mac1609_4 NumInternalContention 0
scalar RSUExampleScenario.node[115].nic.mac1609_4 totalBusyTime 0.298861
scalar RSUExampleScenario.node[115].nic.mac1609_4 retriesExceeded:count 0
attr source org_car2x_veins_modules_mac_sigRetriesExceeded
scalar RSUExampleScenario.node[115].nic.mac1609_4 sentAcks:count 0
attr source org_car2x_veins_modules_mac_sigSentAck
scalar RSUExampleScenario.node[115].nic.mac1609_4 sentPackets:count 29
attr source org_car2x_veins_modules_mac_sigSentPacket
scalar RSUExampleScenario.node[115].nic.mac1609_4 collisions:count 0
attr source org_car2x_veins_modules_mac_sigCollision
scalar RSUExampleScenario.node[115].nic.mac1609_4 channelBusy:timeavg 0.10673607142857
attr source org_car2x_veins_modules_mac_sigChannelBusy
scalar RSUExampleScenario.node[115].veinsmobility startTime 117.2
scalar RSUExampleScenario.node[115].veinsmobility totalTime 2.8
scalar RSUExampleScenario.node[115].veinsmobility stopTime 120
scalar RSUExampleScenario.node[115].veinsmobility minSpeed 1.7527696830609
scalar RSUExampleScenario.node[115].veinsmobility maxSpeed 2.8799661807886
scalar RSUExampleScenario.node[115].veinsmobility totalDistance 6.8422861621407
scalar RSUExampleScenario.node[115].veinsmobility totalCO2Emission 4.1656704736778

