version 2
run WithBeaconing-0-20251015-15:43:24-4741
attr configname WithBeaconing
attr datetime 20251015-15:43:24
attr experiment WithBeaconing
attr inifile omnetpp.ini
attr iterationvars ""
attr iterationvarsf ""
attr measurement ""
attr network RSUExampleScenario
attr processid 4741
attr repetition 0
attr replication #0
attr resultdir results
attr runnumber 0
attr seedset 210041226
param *.node[*].appl.sendBeacons true
param *.playgroundSizeX 1700m
param *.playgroundSizeY 1700m
param *.playgroundSizeZ 50m
param *.annotations.draw true
param *.manager.updateInterval 0.1s
param *.manager.host "\"localhost\""
param *.manager.port 9999
param *.manager.autoShutdown true
param *.manager.launchConfig "xmldoc(\"simulation_junction.launchd.xml\")"
param *.connectionManager.sendDirect true
param *.connectionManager.maxInterfDist 2600m
param *.connectionManager.drawMaxIntfDist false
param *.**.nic.mac1609_4.useServiceChannel false
param *.**.nic.mac1609_4.txPower 20mW
param *.**.nic.mac1609_4.bitrate 6Mbps
param *.**.nic.phy80211p.minPowerLevel -110dBm
param *.**.nic.phy80211p.useNoiseFloor true
param *.**.nic.phy80211p.noiseFloor -98dBm
param *.**.nic.phy80211p.decider "xmldoc(\"config.xml\")"
param *.**.nic.phy80211p.analogueModels "xmldoc(\"config.xml\")"
param *.**.nic.phy80211p.usePropagationDelay true
param *.**.nic.phy80211p.antenna "xmldoc(\"antenna.xml\", \"/root/Antenna[@id='monopole']\")"
param *.node[*].nic.phy80211p.antennaOffsetY "0 m"
param *.node[*].nic.phy80211p.antennaOffsetZ "1.895 m"
param *.node[*].applType "\"TraCIDemo11p\""
param *.node[*].appl.headerLength "80 bit"
param *.node[*].appl.sendBeacons false
param *.node[*].appl.dataOnSch false
param *.node[*].appl.beaconInterval 0.1s
param **.node[*].appl.dataUserPriority 5
param **.node[*].appl.beaconUserPriority 7
param *.node[*].veinsmobility.x 0
param *.node[*].veinsmobility.y 0
param *.node[*].veinsmobility.z 0
param *.node[*].veinsmobility.setHostSpeed false

scalar RSUExampleScenario.node[0].appl generatedWSMs 1
scalar RSUExampleScenario.node[0].appl receivedWSMs 57
scalar RSUExampleScenario.node[0].appl generatedBSMs 946
scalar RSUExampleScenario.node[0].appl receivedBSMs 28679
scalar RSUExampleScenario.node[0].appl generatedWSAs 0
scalar RSUExampleScenario.node[0].appl receivedWSAs 0
scalar RSUExampleScenario.node[0].nic.phy80211p busyTime 0.034595687103589
scalar RSUExampleScenario.node[0].nic.mac1609_4 ReceivedUnicastPackets 0
scalar RSUExampleScenario.node[0].nic.mac1609_4 ReceivedBroadcasts 28736
scalar RSUExampleScenario.node[0].nic.mac1609_4 SentPackets 947
scalar RSUExampleScenario.node[0].nic.mac1609_4 SentAcknowledgements 0
scalar RSUExampleScenario.node[0].nic.mac1609_4 RetriesExceeded 0
scalar RSUExampleScenario.node[0].nic.mac1609_4 SNIRLostPackets 2654
scalar RSUExampleScenario.node[0].nic.mac1609_4 RXTXLostPackets 0
scalar RSUExampleScenario.node[0].nic.mac1609_4 TotalLostPackets 2654
scalar RSUExampleScenario.node[0].nic.mac1609_4 DroppedPacketsInMac 0
scalar RSUExampleScenario.node[0].nic.mac1609_4 TooLittleTime 0
scalar RSUExampleScenario.node[0].nic.mac1609_4 TimesIntoBackoff 947
scalar RSUExampleScenario.node[0].nic.mac1609_4 SlotsBackoff 1403
scalar RSUExampleScenario.node[0].nic.mac1609_4 NumInternalContention 0
scalar RSUExampleScenario.node[0].nic.mac1609_4 totalBusyTime 3.361187
scalar RSUExampleScenario.node[0].nic.mac1609_4 retriesExceeded:count 0
attr source org_car2x_veins_modules_mac_sigRetriesExceeded
scalar RSUExampleScenario.node[0].nic.mac1609_4 sentAcks:count 0
attr source org_car2x_veins_modules_mac_sigSentAck
scalar RSUExampleScenario.node[0].nic.mac1609_4 sentPackets:count 947
attr source org_car2x_veins_modules_mac_sigSentPacket
scalar RSUExampleScenario.node[0].nic.mac1609_4 collisions:count 0
attr source org_car2x_veins_modules_mac_sigCollision
scalar RSUExampleScenario.node[0].nic.mac1609_4 channelBusy:timeavg 0.035530517970396
attr source org_car2x_veins_modules_mac_sigChannelBusy
scalar RSUExampleScenario.node[0].veinsmobility startTime 0.1
scalar RSUExampleScenario.node[0].veinsmobility totalTime 94.5
scalar RSUExampleScenario.node[0].veinsmobility stopTime 94.7
scalar RSUExampleScenario.node[0].veinsmobility minSpeed 0
scalar RSUExampleScenario.node[0].veinsmobility maxSpeed 11.163062379957
scalar RSUExampleScenario.node[0].veinsmobility totalDistance 747.05366501733
scalar RSUExampleScenario.node[0].veinsmobility totalCO2Emission 202.69024728799
scalar RSUExampleScenario.node[1].appl generatedWSMs 1
scalar RSUExampleScenario.node[1].appl receivedWSMs 58
scalar RSUExampleScenario.node[1].appl generatedBSMs 969
scalar RSUExampleScenario.node[1].appl receivedBSMs 30665
scalar RSUExampleScenario.node[1].appl generatedWSAs 0
scalar RSUExampleScenario.node[1].appl receivedWSAs 0
scalar RSUExampleScenario.node[1].nic.phy80211p busyTime 0.035411517027857
scalar RSUExampleScenario.node[1].nic.mac1609_4 ReceivedUnicastPackets 0
scalar RSUExampleScenario.node[1].nic.mac1609_4 ReceivedBroadcasts 30723
scalar RSUExampleScenario.node[1].nic.mac1609_4 SentPackets 970
scalar RSUExampleScenario.node[1].nic.mac1609_4 SentAcknowledgements 0
scalar RSUExampleScenario.node[1].nic.mac1609_4 RetriesExceeded 0
scalar RSUExampleScenario.node[1].nic.mac1609_4 SNIRLostPackets 2191
scalar RSUExampleScenario.node[1].nic.mac1609_4 RXTXLostPackets 0
scalar RSUExampleScenario.node[1].nic.mac1609_4 TotalLostPackets 2191
scalar RSUExampleScenario.node[1].nic.mac1609_4 DroppedPacketsInMac 0
scalar RSUExampleScenario.node[1].nic.mac1609_4 TooLittleTime 0
scalar RSUExampleScenario.node[1].nic.mac1609_4 TimesIntoBackoff 970
scalar RSUExampleScenario.node[1].nic.mac1609_4 SlotsBackoff 1462
scalar RSUExampleScenario.node[1].nic.mac1609_4 NumInternalContention 0
scalar RSUExampleScenario.node[1].nic.mac1609_4 totalBusyTime 3.52181
scalar RSUExampleScenario.node[1].nic.mac1609_4 retriesExceeded:count 0
attr source org_car2x_veins_modules_mac_sigRetriesExceeded
scalar RSUExampleScenario.node[1].nic.mac1609_4 sentAcks:count 0
attr source org_car2x_veins_modules_mac_sigSentAck
scalar RSUExampleScenario.node[1].nic.mac1609_4 sentPackets:count 970
attr source org_car2x_veins_modules_mac_sigSentPacket
scalar RSUExampleScenario.node[1].nic.mac1609_4 collisions:count 0
attr source org_car2x_veins_modules_mac_sigCollision
scalar RSUExampleScenario.node[1].nic.mac1609_4 channelBusy:timeavg 0.036344788441685
attr source org_car2x_veins_modules_mac_sigChannelBusy
scalar RSUExampleScenario.node[1].veinsmobility startTime 0.1
scalar RSUExampleScenario.node[1].veinsmobility totalTime 96.8
scalar RSUExampleScenario.node[1].veinsmobility stopTime 97
scalar RSUExampleScenario.node[1].veinsmobility minSpeed 0
scalar RSUExampleScenario.node[1].veinsmobility maxSpeed 10.483170669105
scalar RSUExampleScenario.node[1].veinsmobility totalDistance 748.96551365838
scalar RSUExampleScenario.node[1].veinsmobility totalCO2Emission 207.23187973838
scalar RSUExampleScenario.node[5].appl generatedWSMs 1
scalar RSUExampleScenario.node[5].appl receivedWSMs 58
scalar RSUExampleScenario.node[5].appl generatedBSMs 926
scalar RSUExampleScenario.node[5].appl receivedBSMs 31570
scalar RSUExampleScenario.node[5].appl generatedWSAs 0
scalar RSUExampleScenario.node[5].appl receivedWSAs 0
scalar RSUExampleScenario.node[5].nic.phy80211p busyTime 0.038179265658739
scalar RSUExampleScenario.node[5].nic.mac1609_4 ReceivedUnicastPackets 0
scalar RSUExampleScenario.node[5].nic.mac1609_4 ReceivedBroadcasts 31628
scalar RSUExampleScenario.node[5].nic.mac1609_4 SentPackets 927
scalar RSUExampleScenario.node[5].nic.mac1609_4 SentAcknowledgements 0
scalar RSUExampleScenario.node[5].nic.mac1609_4 RetriesExceeded 0
scalar RSUExampleScenario.node[5].nic.mac1609_4 SNIRLostPackets 2285
scalar RSUExampleScenario.node[5].nic.mac1609_4 RXTXLostPackets 0
scalar RSUExampleScenario.node[5].nic.mac1609_4 TotalLostPackets 2285
scalar RSUExampleScenario.node[5].nic.mac1609_4 DroppedPacketsInMac 0
scalar RSUExampleScenario.node[5].nic.mac1609_4 TooLittleTime 0
scalar RSUExampleScenario.node[5].nic.mac1609_4 TimesIntoBackoff 1693
scalar RSUExampleScenario.node[5].nic.mac1609_4 SlotsBackoff 2559
scalar RSUExampleScenario.node[5].nic.mac1609_4 NumInternalContention 0
scalar RSUExampleScenario.node[5].nic.mac1609_4 totalBusyTime 3.621007
scalar RSUExampleScenario.node[5].nic.mac1609_4 retriesExceeded:count 0
attr source org_car2x_veins_modules_mac_sigRetriesExceeded
scalar RSUExampleScenario.node[5].nic.mac1609_4 sentAcks:count 0
attr source org_car2x_veins_modules_mac_sigSentAck
scalar RSUExampleScenario.node[5].nic.mac1609_4 sentPackets:count 927
attr source org_car2x_veins_modules_mac_sigSentPacket
scalar RSUExampleScenario.node[5].nic.mac1609_4 collisions:count 0
attr source org_car2x_veins_modules_mac_sigCollision
scalar RSUExampleScenario.node[5].nic.mac1609_4 channelBusy:timeavg 0.039103747300207
attr source org_car2x_veins_modules_mac_sigChannelBusy
scalar RSUExampleScenario.node[5].veinsmobility startTime 6.1
scalar RSUExampleScenario.node[5].veinsmobility totalTime 92.5
scalar RSUExampleScenario.node[5].veinsmobility stopTime 98.7
scalar RSUExampleScenario.node[5].veinsmobility minSpeed 0
scalar RSUExampleScenario.node[5].veinsmobility maxSpeed 11.557749651842
scalar RSUExampleScenario.node[5].veinsmobility totalDistance 749.42852992462
scalar RSUExampleScenario.node[5].veinsmobility totalCO2Emission 219.40358783341
scalar RSUExampleScenario.node[8].appl generatedWSMs 1
scalar RSUExampleScenario.node[8].appl receivedWSMs 58
scalar RSUExampleScenario.node[8].appl generatedBSMs 904
scalar RSUExampleScenario.node[8].appl receivedBSMs 32456
scalar RSUExampleScenario.node[8].appl generatedWSAs 0
scalar RSUExampleScenario.node[8].appl receivedWSAs 0
scalar RSUExampleScenario.node[8].nic.phy80211p busyTime 0.040236371681406
scalar RSUExampleScenario.node[8].nic.mac1609_4 ReceivedUnicastPackets 0
scalar RSUExampleScenario.node[8].nic.mac1609_4 ReceivedBroadcasts 32514
scalar RSUExampleScenario.node[8].nic.mac1609_4 SentPackets 905
scalar RSUExampleScenario.node[8].nic.mac1609_4 SentAcknowledgements 0
scalar RSUExampleScenario.node[8].nic.mac1609_4 RetriesExceeded 0
scalar RSUExampleScenario.node[8].nic.mac1609_4 SNIRLostPackets 2377
scalar RSUExampleScenario.node[8].nic.mac1609_4 RXTXLostPackets 0
scalar RSUExampleScenario.node[8].nic.mac1609_4 TotalLostPackets 2377
scalar RSUExampleScenario.node[8].nic.mac1609_4 DroppedPacketsInMac 0
scalar RSUExampleScenario.node[8].nic.mac1609_4 TooLittleTime 0
scalar RSUExampleScenario.node[8].nic.mac1609_4 TimesIntoBackoff 905
scalar RSUExampleScenario.node[8].nic.mac1609_4 SlotsBackoff 1368
scalar RSUExampleScenario.node[8].nic.mac1609_4 NumInternalContention 0
scalar RSUExampleScenario.node[8].nic.mac1609_4 totalBusyTime 3.719833
scalar RSUExampleScenario.node[8].nic.mac1609_4 retriesExceeded:count 0
attr source org_car2x_veins_modules_mac_sigRetriesExceeded
scalar RSUExampleScenario.node[8].nic.mac1609_4 sentAcks:count 0
attr source org_car2x_veins_modules_mac_sigSentAck
scalar RSUExampleScenario.node[8].nic.mac1609_4 sentPackets:count 905
attr source org_car2x_veins_modules_mac_sigSentPacket
scalar RSUExampleScenario.node[8].nic.mac1609_4 collisions:count 0
attr source org_car2x_veins_modules_mac_sigCollision
scalar RSUExampleScenario.node[8].nic.mac1609_4 channelBusy:timeavg 0.041148595132733
attr source org_car2x_veins_modules_mac_sigChannelBusy
scalar RSUExampleScenario.node[8].veinsmobility startTime 10.1
scalar RSUExampleScenario.node[8].veinsmobility totalTime 90.3
scalar RSUExampleScenario.node[8].veinsmobility stopTime 100.5
scalar RSUExampleScenario.node[8].veinsmobility minSpeed 6.6810315306094e-05
scalar RSUExampleScenario.node[8].veinsmobility maxSpeed 10.540920072219
scalar RSUExampleScenario.node[8].veinsmobility totalDistance 748.61212982584
scalar RSUExampleScenario.node[8].veinsmobility totalCO2Emission 203.25182737181
scalar RSUExampleScenario.node[10].appl generatedWSMs 1
scalar RSUExampleScenario.node[10].appl receivedWSMs 61
scalar RSUExampleScenario.node[10].appl generatedBSMs 881
scalar RSUExampleScenario.node[10].appl receivedBSMs 33249
scalar RSUExampleScenario.node[10].appl generatedWSAs 0
scalar RSUExampleScenario.node[10].appl receivedWSAs 0
scalar RSUExampleScenario.node[10].nic.phy80211p busyTime 0.042233825198627
scalar RSUExampleScenario.node[10].nic.mac1609_4 ReceivedUnicastPackets 0
scalar RSUExampleScenario.node[10].nic.mac1609_4 ReceivedBroadcasts 33310
scalar RSUExampleScenario.node[10].nic.mac1609_4 SentPackets 882
scalar RSUExampleScenario.node[10].nic.mac1609_4 SentAcknowledgements 0
scalar RSUExampleScenario.node[10].nic.mac1609_4 RetriesExceeded 0
scalar RSUExampleScenario.node[10].nic.mac1609_4 SNIRLostPackets 2382
scalar RSUExampleScenario.node[10].nic.mac1609_4 RXTXLostPackets 0
scalar RSUExampleScenario.node[10].nic.mac1609_4 TotalLostPackets 2382
scalar RSUExampleScenario.node[10].nic.mac1609_4 DroppedPacketsInMac 0
scalar RSUExampleScenario.node[10].nic.mac1609_4 TooLittleTime 0
scalar RSUExampleScenario.node[10].nic.mac1609_4 TimesIntoBackoff 882
scalar RSUExampleScenario.node[10].nic.mac1609_4 SlotsBackoff 1325
scalar RSUExampleScenario.node[10].nic.mac1609_4 NumInternalContention 0
scalar RSUExampleScenario.node[10].nic.mac1609_4 totalBusyTime 3.800538608557
scalar RSUExampleScenario.node[10].nic.mac1609_4 retriesExceeded:count 0
attr source org_car2x_veins_modules_mac_sigRetriesExceeded
scalar RSUExampleScenario.node[10].nic.mac1609_4 sentAcks:count 0
attr source org_car2x_veins_modules_mac_sigSentAck
scalar RSUExampleScenario.node[10].nic.mac1609_4 sentPackets:count 882
attr source org_car2x_veins_modules_mac_sigSentPacket
scalar RSUExampleScenario.node[10].nic.mac1609_4 collisions:count 0
attr source org_car2x_veins_modules_mac_sigCollision
scalar RSUExampleScenario.node[10].nic.mac1609_4 channelBusy:timeavg 0.04313891723673
attr source org_car2x_veins_modules_mac_sigChannelBusy
scalar RSUExampleScenario.node[10].veinsmobility startTime 14.1
scalar RSUExampleScenario.node[10].veinsmobility totalTime 88
scalar RSUExampleScenario.node[10].veinsmobility stopTime 102.2
scalar RSUExampleScenario.node[10].veinsmobility minSpeed 0.0015446631887277
scalar RSUExampleScenario.node[10].veinsmobility maxSpeed 11.247922919033
scalar RSUExampleScenario.node[10].veinsmobility totalDistance 748.8068634117
scalar RSUExampleScenario.node[10].veinsmobility totalCO2Emission 212.68590264183
scalar RSUExampleScenario.node[13].appl generatedWSMs 1
scalar RSUExampleScenario.node[13].appl receivedWSMs 65
scalar RSUExampleScenario.node[13].appl generatedBSMs 897
scalar RSUExampleScenario.node[13].appl receivedBSMs 36213
scalar RSUExampleScenario.node[13].appl generatedWSAs 0
scalar RSUExampleScenario.node[13].appl receivedWSAs 0
scalar RSUExampleScenario.node[13].nic.phy80211p busyTime 0.045255741360077
scalar RSUExampleScenario.node[13].nic.mac1609_4 ReceivedUnicastPackets 0
scalar RSUExampleScenario.node[13].nic.mac1609_4 ReceivedBroadcasts 36278
scalar RSUExampleScenario.node[13].nic.mac1609_4 SentPackets 898
scalar RSUExampleScenario.node[13].nic.mac1609_4 SentAcknowledgements 0
scalar RSUExampleScenario.node[13].nic.mac1609_4 RetriesExceeded 0
scalar RSUExampleScenario.node[13].nic.mac1609_4 SNIRLostPackets 2664
scalar RSUExampleScenario.node[13].nic.mac1609_4 RXTXLostPackets 138
scalar RSUExampleScenario.node[13].nic.mac1609_4 TotalLostPackets 2802
scalar RSUExampleScenario.node[13].nic.mac1609_4 DroppedPacketsInMac 0
scalar RSUExampleScenario.node[13].nic.mac1609_4 TooLittleTime 0
scalar RSUExampleScenario.node[13].nic.mac1609_4 TimesIntoBackoff 1398
scalar RSUExampleScenario.node[13].nic.mac1609_4 SlotsBackoff 2090
scalar RSUExampleScenario.node[13].nic.mac1609_4 NumInternalContention 0
scalar RSUExampleScenario.node[13].nic.mac1609_4 totalBusyTime 4.153858513396
scalar RSUExampleScenario.node[13].nic.mac1609_4 retriesExceeded:count 0
attr source org_car2x_veins_modules_mac_sigRetriesExceeded
scalar RSUExampleScenario.node[13].nic.mac1609_4 sentAcks:count 0
attr source org_car2x_veins_modules_mac_sigSentAck
scalar RSUExampleScenario.node[13].nic.mac1609_4 sentPackets:count 898
attr source org_car2x_veins_modules_mac_sigSentPacket
scalar RSUExampleScenario.node[13].nic.mac1609_4 collisions:count 0
attr source org_car2x_veins_modules_mac_sigCollision
scalar RSUExampleScenario.node[13].nic.mac1609_4 channelBusy:timeavg 0.046308344630938
attr source org_car2x_veins_modules_mac_sigChannelBusy
scalar RSUExampleScenario.node[13].veinsmobility startTime 18.1
scalar RSUExampleScenario.node[13].veinsmobility totalTime 89.6
scalar RSUExampleScenario.node[13].veinsmobility stopTime 107.8
scalar RSUExampleScenario.node[13].veinsmobility minSpeed 0.040537200867339
scalar RSUExampleScenario.node[13].veinsmobility maxSpeed 9.8638524316082
scalar RSUExampleScenario.node[13].veinsmobility totalDistance 749.11833883429
scalar RSUExampleScenario.node[13].veinsmobility totalCO2Emission 203.38745902533
scalar RSUExampleScenario.node[4].appl generatedWSMs 1
scalar RSUExampleScenario.node[4].appl receivedWSMs 63
scalar RSUExampleScenario.node[4].appl generatedBSMs 1030
scalar RSUExampleScenario.node[4].appl receivedBSMs 36229
scalar RSUExampleScenario.node[4].appl generatedWSAs 0
scalar RSUExampleScenario.node[4].appl receivedWSAs 0
scalar RSUExampleScenario.node[4].nic.phy80211p busyTime 0.040820582524265
scalar RSUExampleScenario.node[4].nic.mac1609_4 ReceivedUnicastPackets 0
scalar RSUExampleScenario.node[4].nic.mac1609_4 ReceivedBroadcasts 36292
scalar RSUExampleScenario.node[4].nic.mac1609_4 SentPackets 1031
scalar RSUExampleScenario.node[4].nic.mac1609_4 SentAcknowledgements 0
scalar RSUExampleScenario.node[4].nic.mac1609_4 RetriesExceeded 0
scalar RSUExampleScenario.node[4].nic.mac1609_4 SNIRLostPackets 4045
scalar RSUExampleScenario.node[4].nic.mac1609_4 RXTXLostPackets 0
scalar RSUExampleScenario.node[4].nic.mac1609_4 TotalLostPackets 4045
scalar RSUExampleScenario.node[4].nic.mac1609_4 DroppedPacketsInMac 0
scalar RSUExampleScenario.node[4].nic.mac1609_4 TooLittleTime 0
scalar RSUExampleScenario.node[4].nic.mac1609_4 TimesIntoBackoff 1032
scalar RSUExampleScenario.node[4].nic.mac1609_4 SlotsBackoff 1523
scalar RSUExampleScenario.node[4].nic.mac1609_4 NumInternalContention 0
scalar RSUExampleScenario.node[4].nic.mac1609_4 totalBusyTime 4.298551
scalar RSUExampleScenario.node[4].nic.mac1609_4 retriesExceeded:count 0
attr source org_car2x_veins_modules_mac_sigRetriesExceeded
scalar RSUExampleScenario.node[4].nic.mac1609_4 sentAcks:count 0
attr source org_car2x_veins_modules_mac_sigSentAck
scalar RSUExampleScenario.node[4].nic.mac1609_4 sentPackets:count 1031
attr source org_car2x_veins_modules_mac_sigSentPacket
scalar RSUExampleScenario.node[4].nic.mac1609_4 collisions:count 0
attr source org_car2x_veins_modules_mac_sigCollision
scalar RSUExampleScenario.node[4].nic.mac1609_4 channelBusy:timeavg 0.041733504854365
attr source org_car2x_veins_modules_mac_sigChannelBusy
scalar RSUExampleScenario.node[4].veinsmobility startTime 5.1
scalar RSUExampleScenario.node[4].veinsmobility totalTime 102.9
scalar RSUExampleScenario.node[4].veinsmobility stopTime 108.1
scalar RSUExampleScenario.node[4].veinsmobility minSpeed 1.0283244829794e-05
scalar RSUExampleScenario.node[4].veinsmobility maxSpeed 8.8310542164931
scalar RSUExampleScenario.node[4].veinsmobility totalDistance 746.6066321223
scalar RSUExampleScenario.node[4].veinsmobility totalCO2Emission 209.66481417047
scalar RSUExampleScenario.node[16].appl generatedWSMs 1
scalar RSUExampleScenario.node[16].appl receivedWSMs 65
scalar RSUExampleScenario.node[16].appl generatedBSMs 874
scalar RSUExampleScenario.node[16].appl receivedBSMs 36761
scalar RSUExampleScenario.node[16].appl generatedWSAs 0
scalar RSUExampleScenario.node[16].appl receivedWSAs 0
scalar RSUExampleScenario.node[16].nic.phy80211p busyTime 0.047340320366123
scalar RSUExampleScenario.node[16].nic.mac1609_4 ReceivedUnicastPackets 0
scalar RSUExampleScenario.node[16].nic.mac1609_4 ReceivedBroadcasts 36826
scalar RSUExampleScenario.node[16].nic.mac1609_4 SentPackets 875
scalar RSUExampleScenario.node[16].nic.mac1609_4 SentAcknowledgements 0
scalar RSUExampleScenario.node[16].nic.mac1609_4 RetriesExceeded 0
scalar RSUExampleScenario.node[16].nic.mac1609_4 SNIRLostPackets 2867
scalar RSUExampleScenario.node[16].nic.mac1609_4 RXTXLostPackets 0
scalar RSUExampleScenario.node[16].nic.mac1609_4 TotalLostPackets 2867
scalar RSUExampleScenario.node[16].nic.mac1609_4 DroppedPacketsInMac 0
scalar RSUExampleScenario.node[16].nic.mac1609_4 TooLittleTime 0
scalar RSUExampleScenario.node[16].nic.mac1609_4 TimesIntoBackoff 875
scalar RSUExampleScenario.node[16].nic.mac1609_4 SlotsBackoff 1319
scalar RSUExampleScenario.node[16].nic.mac1609_4 NumInternalContention 0
scalar RSUExampleScenario.node[16].nic.mac1609_4 totalBusyTime 4.215195159186
scalar RSUExampleScenario.node[16].nic.mac1609_4 retriesExceeded:count 0
attr source org_car2x_veins_modules_mac_sigRetriesExceeded
scalar RSUExampleScenario.node[16].nic.mac1609_4 sentAcks:count 0
attr source org_car2x_veins_modules_mac_sigSentAck
scalar RSUExampleScenario.node[16].nic.mac1609_4 sentPackets:count 875
attr source org_car2x_veins_modules_mac_sigSentPacket
scalar RSUExampleScenario.node[16].nic.mac1609_4 collisions:count 0
attr source org_car2x_veins_modules_mac_sigCollision
scalar RSUExampleScenario.node[16].nic.mac1609_4 channelBusy:timeavg 0.04822877756505
attr source org_car2x_veins_modules_mac_sigChannelBusy
scalar RSUExampleScenario.node[16].veinsmobility startTime 22.1
scalar RSUExampleScenario.node[16].veinsmobility totalTime 87.3
scalar RSUExampleScenario.node[16].veinsmobility stopTime 109.5
scalar RSUExampleScenario.node[16].veinsmobility minSpeed 0.30883808684953
scalar RSUExampleScenario.node[16].veinsmobility maxSpeed 10.569235867564
scalar RSUExampleScenario.node[16].veinsmobility totalDistance 748.91054050916
scalar RSUExampleScenario.node[16].veinsmobility totalCO2Emission 212.81125608559
scalar RSUExampleScenario.node[19].appl generatedWSMs 1
scalar RSUExampleScenario.node[19].appl receivedWSMs 69
scalar RSUExampleScenario.node[19].appl generatedBSMs 886
scalar RSUExampleScenario.node[19].appl receivedBSMs 39382
scalar RSUExampleScenario.node[19].appl generatedWSAs 0
scalar RSUExampleScenario.node[19].appl receivedWSAs 0
scalar RSUExampleScenario.node[19].nic.phy80211p busyTime 0.050219322799098
scalar RSUExampleScenario.node[19].nic.mac1609_4 ReceivedUnicastPackets 0
scalar RSUExampleScenario.node[19].nic.mac1609_4 ReceivedBroadcasts 39451
scalar RSUExampleScenario.node[19].nic.mac1609_4 SentPackets 887
scalar RSUExampleScenario.node[19].nic.mac1609_4 SentAcknowledgements 0
scalar RSUExampleScenario.node[19].nic.mac1609_4 RetriesExceeded 0
scalar RSUExampleScenario.node[19].nic.mac1609_4 SNIRLostPackets 3236
scalar RSUExampleScenario.node[19].nic.mac1609_4 RXTXLostPackets 0
scalar RSUExampleScenario.node[19].nic.mac1609_4 TotalLostPackets 3236
scalar RSUExampleScenario.node[19].nic.mac1609_4 DroppedPacketsInMac 0
scalar RSUExampleScenario.node[19].nic.mac1609_4 TooLittleTime 0
scalar RSUExampleScenario.node[19].nic.mac1609_4 TimesIntoBackoff 887
scalar RSUExampleScenario.node[19].nic.mac1609_4 SlotsBackoff 1306
scalar RSUExampleScenario.node[19].nic.mac1609_4 NumInternalContention 0
scalar RSUExampleScenario.node[19].nic.mac1609_4 totalBusyTime 4.528343
scalar RSUExampleScenario.node[19].nic.mac1609_4 retriesExceeded:count 0
attr source org_car2x_veins_modules_mac_sigRetriesExceeded
scalar RSUExampleScenario.node[19].nic.mac1609_4 sentAcks:count 0
attr source org_car2x_veins_modules_mac_sigSentAck
scalar RSUExampleScenario.node[19].nic.mac1609_4 sentPackets:count 887
attr source org_car2x_veins_modules_mac_sigSentPacket
scalar RSUExampleScenario.node[19].nic.mac1609_4 collisions:count 0
attr source org_car2x_veins_modules_mac_sigCollision
scalar RSUExampleScenario.node[19].nic.mac1609_4 channelBusy:timeavg 0.051109966139958
attr source org_car2x_veins_modules_mac_sigChannelBusy
scalar RSUExampleScenario.node[19].veinsmobility startTime 26.1
scalar RSUExampleScenario.node[19].veinsmobility totalTime 88.5
scalar RSUExampleScenario.node[19].veinsmobility stopTime 114.7
scalar RSUExampleScenario.node[19].veinsmobility minSpeed 5.563522232075
scalar RSUExampleScenario.node[19].veinsmobility maxSpeed 9.3858189773471
scalar RSUExampleScenario.node[19].veinsmobility totalDistance 749.67556897943
scalar RSUExampleScenario.node[19].veinsmobility totalCO2Emission 202.04575323524
scalar RSUExampleScenario.node[22].appl generatedWSMs 1
scalar RSUExampleScenario.node[22].appl receivedWSMs 69
scalar RSUExampleScenario.node[22].appl generatedBSMs 863
scalar RSUExampleScenario.node[22].appl receivedBSMs 39764
scalar RSUExampleScenario.node[22].appl generatedWSAs 0
scalar RSUExampleScenario.node[22].appl receivedWSAs 0
scalar RSUExampleScenario.node[22].nic.phy80211p busyTime 0.052094275782158
scalar RSUExampleScenario.node[22].nic.mac1609_4 ReceivedUnicastPackets 0
scalar RSUExampleScenario.node[22].nic.mac1609_4 ReceivedBroadcasts 39833
scalar RSUExampleScenario.node[22].nic.mac1609_4 SentPackets 864
scalar RSUExampleScenario.node[22].nic.mac1609_4 SentAcknowledgements 0
scalar RSUExampleScenario.node[22].nic.mac1609_4 RetriesExceeded 0
scalar RSUExampleScenario.node[22].nic.mac1609_4 SNIRLostPackets 3298
scalar RSUExampleScenario.node[22].nic.mac1609_4 RXTXLostPackets 0
scalar RSUExampleScenario.node[22].nic.mac1609_4 TotalLostPackets 3298
scalar RSUExampleScenario.node[22].nic.mac1609_4 DroppedPacketsInMac 0
scalar RSUExampleScenario.node[22].nic.mac1609_4 TooLittleTime 0
scalar RSUExampleScenario.node[22].nic.mac1609_4 TimesIntoBackoff 864
scalar RSUExampleScenario.node[22].nic.mac1609_4 SlotsBackoff 1293
scalar RSUExampleScenario.node[22].nic.mac1609_4 NumInternalContention 0
scalar RSUExampleScenario.node[22].nic.mac1609_4 totalBusyTime 4.572232
scalar RSUExampleScenario.node[22].nic.mac1609_4 retriesExceeded:count 0
attr source org_car2x_veins_modules_mac_sigRetriesExceeded
scalar RSUExampleScenario.node[22].nic.mac1609_4 sentAcks:count 0
attr source org_car2x_veins_modules_mac_sigSentAck
scalar RSUExampleScenario.node[22].nic.mac1609_4 sentPackets:count 864
attr source org_car2x_veins_modules_mac_sigSentPacket
scalar RSUExampleScenario.node[22].nic.mac1609_4 collisions:count 0
attr source org_car2x_veins_modules_mac_sigCollision
scalar RSUExampleScenario.node[22].nic.mac1609_4 channelBusy:timeavg 0.052980672074165
attr source org_car2x_veins_modules_mac_sigChannelBusy
scalar RSUExampleScenario.node[22].veinsmobility startTime 30.1
scalar RSUExampleScenario.node[22].veinsmobility totalTime 86.2
scalar RSUExampleScenario.node[22].veinsmobility stopTime 116.4
scalar RSUExampleScenario.node[22].veinsmobility minSpeed 5.5862884912966
scalar RSUExampleScenario.node[22].veinsmobility maxSpeed 10.050241970181
scalar RSUExampleScenario.node[22].veinsmobility totalDistance 748.6448682994
scalar RSUExampleScenario.node[22].veinsmobility totalCO2Emission 209.15601291
scalar RSUExampleScenario.node[20].appl generatedWSMs 1
scalar RSUExampleScenario.node[20].appl receivedWSMs 72
scalar RSUExampleScenario.node[20].appl generatedBSMs 900
scalar RSUExampleScenario.node[20].appl receivedBSMs 41274
scalar RSUExampleScenario.node[20].appl generatedWSAs 0
scalar RSUExampleScenario.node[20].appl receivedWSAs 0
scalar RSUExampleScenario.node[20].nic.phy80211p busyTime 0.051834400000008
scalar RSUExampleScenario.node[20].nic.mac1609_4 ReceivedUnicastPackets 0
scalar RSUExampleScenario.node[20].nic.mac1609_4 ReceivedBroadcasts 41346
scalar RSUExampleScenario.node[20].nic.mac1609_4 SentPackets 901
scalar RSUExampleScenario.node[20].nic.mac1609_4 SentAcknowledgements 0
scalar RSUExampleScenario.node[20].nic.mac1609_4 RetriesExceeded 0
scalar RSUExampleScenario.node[20].nic.mac1609_4 SNIRLostPackets 3411
scalar RSUExampleScenario.node[20].nic.mac1609_4 RXTXLostPackets 0
scalar RSUExampleScenario.node[20].nic.mac1609_4 TotalLostPackets 3411
scalar RSUExampleScenario.node[20].nic.mac1609_4 DroppedPacketsInMac 0
scalar RSUExampleScenario.node[20].nic.mac1609_4 TooLittleTime 0
scalar RSUExampleScenario.node[20].nic.mac1609_4 TimesIntoBackoff 902
scalar RSUExampleScenario.node[20].nic.mac1609_4 SlotsBackoff 1329
scalar RSUExampleScenario.node[20].nic.mac1609_4 NumInternalContention 0
scalar RSUExampleScenario.node[20].nic.mac1609_4 totalBusyTime 4.745477
scalar RSUExampleScenario.node[20].nic.mac1609_4 retriesExceeded:count 0
attr source org_car2x_veins_modules_mac_sigRetriesExceeded
scalar RSUExampleScenario.node[20].nic.mac1609_4 sentAcks:count 0
attr source org_car2x_veins_modules_mac_sigSentAck
scalar RSUExampleScenario.node[20].nic.mac1609_4 sentPackets:count 901
attr source org_car2x_veins_modules_mac_sigSentPacket
scalar RSUExampleScenario.node[20].nic.mac1609_4 collisions:count 0
attr source org_car2x_veins_modules_mac_sigCollision
scalar RSUExampleScenario.node[20].nic.mac1609_4 channelBusy:timeavg 0.052727522222233
attr source org_car2x_veins_modules_mac_sigChannelBusy
scalar RSUExampleScenario.node[20].veinsmobility startTime 28.1
scalar RSUExampleScenario.node[20].veinsmobility totalTime 89.9
scalar RSUExampleScenario.node[20].veinsmobility stopTime 118.1
scalar RSUExampleScenario.node[20].veinsmobility minSpeed 1.1450784717865
scalar RSUExampleScenario.node[20].veinsmobility maxSpeed 11.743563900339
scalar RSUExampleScenario.node[20].veinsmobility totalDistance 750.16940715111
scalar RSUExampleScenario.node[20].veinsmobility totalCO2Emission 223.20057744571
scalar RSUExampleScenario.node[7].appl generatedWSMs 1
scalar RSUExampleScenario.node[7].appl receivedWSMs 68
scalar RSUExampleScenario.node[7].appl generatedBSMs 1091
scalar RSUExampleScenario.node[7].appl receivedBSMs 42884
scalar RSUExampleScenario.node[7].appl generatedWSAs 0
scalar RSUExampleScenario.node[7].appl receivedWSAs 0
scalar RSUExampleScenario.node[7].nic.phy80211p busyTime 0.045802603116423
scalar RSUExampleScenario.node[7].nic.mac1609_4 ReceivedUnicastPackets 0
scalar RSUExampleScenario.node[7].nic.mac1609_4 ReceivedBroadcasts 42952
scalar RSUExampleScenario.node[7].nic.mac1609_4 SentPackets 1092
scalar RSUExampleScenario.node[7].nic.mac1609_4 SentAcknowledgements 0
scalar RSUExampleScenario.node[7].nic.mac1609_4 RetriesExceeded 0
scalar RSUExampleScenario.node[7].nic.mac1609_4 SNIRLostPackets 4997
scalar RSUExampleScenario.node[7].nic.mac1609_4 RXTXLostPackets 0
scalar RSUExampleScenario.node[7].nic.mac1609_4 TotalLostPackets 4997
scalar RSUExampleScenario.node[7].nic.mac1609_4 DroppedPacketsInMac 0
scalar RSUExampleScenario.node[7].nic.mac1609_4 TooLittleTime 0
scalar RSUExampleScenario.node[7].nic.mac1609_4 TimesIntoBackoff 1309
scalar RSUExampleScenario.node[7].nic.mac1609_4 SlotsBackoff 1943
scalar RSUExampleScenario.node[7].nic.mac1609_4 NumInternalContention 0
scalar RSUExampleScenario.node[7].nic.mac1609_4 totalBusyTime 5.097500146262
scalar RSUExampleScenario.node[7].nic.mac1609_4 retriesExceeded:count 0
attr source org_car2x_veins_modules_mac_sigRetriesExceeded
scalar RSUExampleScenario.node[7].nic.mac1609_4 sentAcks:count 0
attr source org_car2x_veins_modules_mac_sigSentAck
scalar RSUExampleScenario.node[7].nic.mac1609_4 sentPackets:count 1092
attr source org_car2x_veins_modules_mac_sigSentPacket
scalar RSUExampleScenario.node[7].nic.mac1609_4 collisions:count 0
attr source org_car2x_veins_modules_mac_sigCollision
scalar RSUExampleScenario.node[7].nic.mac1609_4 channelBusy:timeavg 0.046723191074831
attr source org_car2x_veins_modules_mac_sigChannelBusy
scalar RSUExampleScenario.node[7].veinsmobility startTime 10.1
scalar RSUExampleScenario.node[7].veinsmobility totalTime 109
scalar RSUExampleScenario.node[7].veinsmobility stopTime 119.2
scalar RSUExampleScenario.node[7].veinsmobility minSpeed 0.021273827907325
scalar RSUExampleScenario.node[7].veinsmobility maxSpeed 7.6435862671461
scalar RSUExampleScenario.node[7].veinsmobility totalDistance 747.07368578595
scalar RSUExampleScenario.node[7].veinsmobility totalCO2Emission 216.18579078892
scalar RSUExampleScenario.manager roiArea 0
scalar RSUExampleScenario.node[2].appl generatedWSMs 1
scalar RSUExampleScenario.node[2].appl receivedWSMs 81
scalar RSUExampleScenario.node[2].appl generatedBSMs 1179
scalar RSUExampleScenario.node[2].appl receivedBSMs 48497
scalar RSUExampleScenario.node[2].appl generatedWSAs 0
scalar RSUExampleScenario.node[2].appl receivedWSAs 0
scalar RSUExampleScenario.node[2].nic.phy80211p busyTime 0.043176047497897
scalar RSUExampleScenario.node[2].nic.mac1609_4 ReceivedUnicastPackets 0
scalar RSUExampleScenario.node[2].nic.mac1609_4 ReceivedBroadcasts 48578
scalar RSUExampleScenario.node[2].nic.mac1609_4 SentPackets 1180
scalar RSUExampleScenario.node[2].nic.mac1609_4 SentAcknowledgements 0
scalar RSUExampleScenario.node[2].nic.mac1609_4 RetriesExceeded 0
scalar RSUExampleScenario.node[2].nic.mac1609_4 SNIRLostPackets 269
scalar RSUExampleScenario.node[2].nic.mac1609_4 RXTXLostPackets 0
scalar RSUExampleScenario.node[2].nic.mac1609_4 TotalLostPackets 269
scalar RSUExampleScenario.node[2].nic.mac1609_4 DroppedPacketsInMac 0
scalar RSUExampleScenario.node[2].nic.mac1609_4 TooLittleTime 0
scalar RSUExampleScenario.node[2].nic.mac1609_4 TimesIntoBackoff 1180
scalar RSUExampleScenario.node[2].nic.mac1609_4 SlotsBackoff 1698
scalar RSUExampleScenario.node[2].nic.mac1609_4 NumInternalContention 0
scalar RSUExampleScenario.node[2].nic.mac1609_4 totalBusyTime 5.200132119402
scalar RSUExampleScenario.node[2].nic.mac1609_4 retriesExceeded:count 0
attr source org_car2x_veins_modules_mac_sigRetriesExceeded
scalar RSUExampleScenario.node[2].nic.mac1609_4 sentAcks:count 0
attr source org_car2x_veins_modules_mac_sigSentAck
scalar RSUExampleScenario.node[2].nic.mac1609_4 sentPackets:count 1180
attr source org_car2x_veins_modules_mac_sigSentPacket
scalar RSUExampleScenario.node[2].nic.mac1609_4 collisions:count 0
attr source org_car2x_veins_modules_mac_sigCollision
scalar RSUExampleScenario.node[2].nic.mac1609_4 channelBusy:timeavg 0.044106294481801
attr source org_car2x_veins_modules_mac_sigChannelBusy
scalar RSUExampleScenario.node[2].veinsmobility startTime 2.1
scalar RSUExampleScenario.node[2].veinsmobility totalTime 117.9
scalar RSUExampleScenario.node[2].veinsmobility stopTime 120
scalar RSUExampleScenario.node[2].veinsmobility minSpeed 0
scalar RSUExampleScenario.node[2].veinsmobility maxSpeed 10.299447038826
scalar RSUExampleScenario.node[2].veinsmobility totalDistance 236.39899996305
scalar RSUExampleScenario.node[2].veinsmobility totalCO2Emission 145.12155730672
scalar RSUExampleScenario.node[3].appl generatedWSMs 1
scalar RSUExampleScenario.node[3].appl receivedWSMs 81
scalar RSUExampleScenario.node[3].appl generatedBSMs 1159
scalar RSUExampleScenario.node[3].appl receivedBSMs 48458
scalar RSUExampleScenario.node[3].appl generatedWSAs 0
scalar RSUExampleScenario.node[3].appl receivedWSAs 0
scalar RSUExampleScenario.node[3].nic.phy80211p busyTime 0.043885211389146
scalar RSUExampleScenario.node[3].nic.mac1609_4 ReceivedUnicastPackets 0
scalar RSUExampleScenario.node[3].nic.mac1609_4 ReceivedBroadcasts 48539
scalar RSUExampleScenario.node[3].nic.mac1609_4 SentPackets 1160
scalar RSUExampleScenario.node[3].nic.mac1609_4 SentAcknowledgements 0
scalar RSUExampleScenario.node[3].nic.mac1609_4 RetriesExceeded 0
scalar RSUExampleScenario.node[3].nic.mac1609_4 SNIRLostPackets 268
scalar RSUExampleScenario.node[3].nic.mac1609_4 RXTXLostPackets 0
scalar RSUExampleScenario.node[3].nic.mac1609_4 TotalLostPackets 268
scalar RSUExampleScenario.node[3].nic.mac1609_4 DroppedPacketsInMac 0
scalar RSUExampleScenario.node[3].nic.mac1609_4 TooLittleTime 0
scalar RSUExampleScenario.node[3].nic.mac1609_4 TimesIntoBackoff 1160
scalar RSUExampleScenario.node[3].nic.mac1609_4 SlotsBackoff 1731
scalar RSUExampleScenario.node[3].nic.mac1609_4 NumInternalContention 0
scalar RSUExampleScenario.node[3].nic.mac1609_4 totalBusyTime 5.193872
scalar RSUExampleScenario.node[3].nic.mac1609_4 retriesExceeded:count 0
attr source org_car2x_veins_modules_mac_sigRetriesExceeded
scalar RSUExampleScenario.node[3].nic.mac1609_4 sentAcks:count 0
attr source org_car2x_veins_modules_mac_sigSentAck
scalar RSUExampleScenario.node[3].nic.mac1609_4 sentPackets:count 1160
attr source org_car2x_veins_modules_mac_sigSentPacket
scalar RSUExampleScenario.node[3].nic.mac1609_4 collisions:count 0
attr source org_car2x_veins_modules_mac_sigCollision
scalar RSUExampleScenario.node[3].nic.mac1609_4 channelBusy:timeavg 0.044813390854205
attr source org_car2x_veins_modules_mac_sigChannelBusy
scalar RSUExampleScenario.node[3].veinsmobility startTime 4.1
scalar RSUExampleScenario.node[3].veinsmobility totalTime 115.9
scalar RSUExampleScenario.node[3].veinsmobility stopTime 120
scalar RSUExampleScenario.node[3].veinsmobility minSpeed 0
scalar RSUExampleScenario.node[3].veinsmobility maxSpeed 10.152553842611
scalar RSUExampleScenario.node[3].veinsmobility totalDistance 228.89799058653
scalar RSUExampleScenario.node[3].veinsmobility totalCO2Emission 143.1639410256
scalar RSUExampleScenario.node[6].appl generatedWSMs 1
scalar RSUExampleScenario.node[6].appl receivedWSMs 81
scalar RSUExampleScenario.node[6].appl generatedBSMs 1119
scalar RSUExampleScenario.node[6].appl receivedBSMs 48285
scalar RSUExampleScenario.node[6].appl generatedWSAs 0
scalar RSUExampleScenario.node[6].appl receivedWSAs 0
scalar RSUExampleScenario.node[6].nic.phy80211p busyTime 0.045295942806095
scalar RSUExampleScenario.node[6].nic.mac1609_4 ReceivedUnicastPackets 0
scalar RSUExampleScenario.node[6].nic.mac1609_4 ReceivedBroadcasts 48366
scalar RSUExampleScenario.node[6].nic.mac1609_4 SentPackets 1120
scalar RSUExampleScenario.node[6].nic.mac1609_4 SentAcknowledgements 0
scalar RSUExampleScenario.node[6].nic.mac1609_4 RetriesExceeded 0
scalar RSUExampleScenario.node[6].nic.mac1609_4 SNIRLostPackets 271
scalar RSUExampleScenario.node[6].nic.mac1609_4 RXTXLostPackets 0
scalar RSUExampleScenario.node[6].nic.mac1609_4 TotalLostPackets 271
scalar RSUExampleScenario.node[6].nic.mac1609_4 DroppedPacketsInMac 0
scalar RSUExampleScenario.node[6].nic.mac1609_4 TooLittleTime 0
scalar RSUExampleScenario.node[6].nic.mac1609_4 TimesIntoBackoff 1121
scalar RSUExampleScenario.node[6].nic.mac1609_4 SlotsBackoff 1687
scalar RSUExampleScenario.node[6].nic.mac1609_4 NumInternalContention 0
scalar RSUExampleScenario.node[6].nic.mac1609_4 totalBusyTime 5.171992
scalar RSUExampleScenario.node[6].nic.mac1609_4 retriesExceeded:count 0
attr source org_car2x_veins_modules_mac_sigRetriesExceeded
scalar RSUExampleScenario.node[6].nic.mac1609_4 sentAcks:count 0
attr source org_car2x_veins_modules_mac_sigSentAck
scalar RSUExampleScenario.node[6].nic.mac1609_4 sentPackets:count 1120
attr source org_car2x_veins_modules_mac_sigSentPacket
scalar RSUExampleScenario.node[6].nic.mac1609_4 collisions:count 0
attr source org_car2x_veins_modules_mac_sigCollision
scalar RSUExampleScenario.node[6].nic.mac1609_4 channelBusy:timeavg 0.046219767649707
attr source org_car2x_veins_modules_mac_sigChannelBusy
scalar RSUExampleScenario.node[6].veinsmobility startTime 8.1
scalar RSUExampleScenario.node[6].veinsmobility totalTime 111.9
scalar RSUExampleScenario.node[6].veinsmobility stopTime 120
scalar RSUExampleScenario.node[6].veinsmobility minSpeed 0
scalar RSUExampleScenario.node[6].veinsmobility maxSpeed 9.4511630940275
scalar RSUExampleScenario.node[6].veinsmobility totalDistance 221.39698092871
scalar RSUExampleScenario.node[6].veinsmobility totalCO2Emission 138.52920016077
scalar RSUExampleScenario.node[9].appl generatedWSMs 1
scalar RSUExampleScenario.node[9].appl receivedWSMs 81
scalar RSUExampleScenario.node[9].appl generatedBSMs 1079
scalar RSUExampleScenario.node[9].appl receivedBSMs 48003
scalar RSUExampleScenario.node[9].appl generatedWSAs 0
scalar RSUExampleScenario.node[9].appl receivedWSAs 0
scalar RSUExampleScenario.node[9].nic.phy80211p busyTime 0.046705245597794
scalar RSUExampleScenario.node[9].nic.mac1609_4 ReceivedUnicastPackets 0
scalar RSUExampleScenario.node[9].nic.mac1609_4 ReceivedBroadcasts 48084
scalar RSUExampleScenario.node[9].nic.mac1609_4 SentPackets 1080
scalar RSUExampleScenario.node[9].nic.mac1609_4 SentAcknowledgements 0
scalar RSUExampleScenario.node[9].nic.mac1609_4 RetriesExceeded 0
scalar RSUExampleScenario.node[9].nic.mac1609_4 SNIRLostPackets 273
scalar RSUExampleScenario.node[9].nic.mac1609_4 RXTXLostPackets 0
scalar RSUExampleScenario.node[9].nic.mac1609_4 TotalLostPackets 273
scalar RSUExampleScenario.node[9].nic.mac1609_4 DroppedPacketsInMac 0
scalar RSUExampleScenario.node[9].nic.mac1609_4 TooLittleTime 0
scalar RSUExampleScenario.node[9].nic.mac1609_4 TimesIntoBackoff 1080
scalar RSUExampleScenario.node[9].nic.mac1609_4 SlotsBackoff 1619
scalar RSUExampleScenario.node[9].nic.mac1609_4 NumInternalContention 0
scalar RSUExampleScenario.node[9].nic.mac1609_4 totalBusyTime 5.138672
scalar RSUExampleScenario.node[9].nic.mac1609_4 retriesExceeded:count 0
attr source org_car2x_veins_modules_mac_sigRetriesExceeded
scalar RSUExampleScenario.node[9].nic.mac1609_4 sentAcks:count 0
attr source org_car2x_veins_modules_mac_sigSentAck
scalar RSUExampleScenario.node[9].nic.mac1609_4 sentPackets:count 1080
attr source org_car2x_veins_modules_mac_sigSentPacket
scalar RSUExampleScenario.node[9].nic.mac1609_4 collisions:count 0
attr source org_car2x_veins_modules_mac_sigCollision
scalar RSUExampleScenario.node[9].nic.mac1609_4 channelBusy:timeavg 0.047624392956461
attr source org_car2x_veins_modules_mac_sigChannelBusy
scalar RSUExampleScenario.node[9].veinsmobility startTime 12.1
scalar RSUExampleScenario.node[9].veinsmobility totalTime 107.9
scalar RSUExampleScenario.node[9].veinsmobility stopTime 120
scalar RSUExampleScenario.node[9].veinsmobility minSpeed 0
scalar RSUExampleScenario.node[9].veinsmobility maxSpeed 11.997687891681
scalar RSUExampleScenario.node[9].veinsmobility totalDistance 213.89597183311
scalar RSUExampleScenario.node[9].veinsmobility totalCO2Emission 137.23187375009
scalar RSUExampleScenario.node[11].appl generatedWSMs 1
scalar RSUExampleScenario.node[11].appl receivedWSMs 72
scalar RSUExampleScenario.node[11].appl generatedBSMs 1049
scalar RSUExampleScenario.node[11].appl receivedBSMs 43270
scalar RSUExampleScenario.node[11].appl generatedWSAs 0
scalar RSUExampleScenario.node[11].appl receivedWSAs 0
scalar RSUExampleScenario.node[11].nic.phy80211p busyTime 0.047763355576757
scalar RSUExampleScenario.node[11].nic.mac1609_4 ReceivedUnicastPackets 0
scalar RSUExampleScenario.node[11].nic.mac1609_4 ReceivedBroadcasts 43342
scalar RSUExampleScenario.node[11].nic.mac1609_4 SentPackets 1050
scalar RSUExampleScenario.node[11].nic.mac1609_4 SentAcknowledgements 0
scalar RSUExampleScenario.node[11].nic.mac1609_4 RetriesExceeded 0
scalar RSUExampleScenario.node[11].nic.mac1609_4 SNIRLostPackets 4735
scalar RSUExampleScenario.node[11].nic.mac1609_4 RXTXLostPackets 0
scalar RSUExampleScenario.node[11].nic.mac1609_4 TotalLostPackets 4735
scalar RSUExampleScenario.node[11].nic.mac1609_4 DroppedPacketsInMac 0
scalar RSUExampleScenario.node[11].nic.mac1609_4 TooLittleTime 0
scalar RSUExampleScenario.node[11].nic.mac1609_4 TimesIntoBackoff 1050
scalar RSUExampleScenario.node[11].nic.mac1609_4 SlotsBackoff 1563
scalar RSUExampleScenario.node[11].nic.mac1609_4 NumInternalContention 0
scalar RSUExampleScenario.node[11].nic.mac1609_4 totalBusyTime 5.106402854472
scalar RSUExampleScenario.node[11].nic.mac1609_4 retriesExceeded:count 0
attr source org_car2x_veins_modules_mac_sigRetriesExceeded
scalar RSUExampleScenario.node[11].nic.mac1609_4 sentAcks:count 0
attr source org_car2x_veins_modules_mac_sigSentAck
scalar RSUExampleScenario.node[11].nic.mac1609_4 sentPackets:count 1050
attr source org_car2x_veins_modules_mac_sigSentPacket
scalar RSUExampleScenario.node[11].nic.mac1609_4 collisions:count 0
attr source org_car2x_veins_modules_mac_sigCollision
scalar RSUExampleScenario.node[11].nic.mac1609_4 channelBusy:timeavg 0.048678768870105
attr source org_car2x_veins_modules_mac_sigChannelBusy
scalar RSUExampleScenario.node[11].veinsmobility startTime 15.1
scalar RSUExampleScenario.node[11].veinsmobility totalTime 104.9
scalar RSUExampleScenario.node[11].veinsmobility stopTime 120
scalar RSUExampleScenario.node[11].veinsmobility minSpeed 0.12622887121196
scalar RSUExampleScenario.node[11].veinsmobility maxSpeed 9.4498873601501
scalar RSUExampleScenario.node[11].veinsmobility totalDistance 739.07012598846
scalar RSUExampleScenario.node[11].veinsmobility totalCO2Emission 220.84095694063
scalar RSUExampleScenario.node[12].appl generatedWSMs 1
scalar RSUExampleScenario.node[12].appl receivedWSMs 81
scalar RSUExampleScenario.node[12].appl generatedBSMs 1039
scalar RSUExampleScenario.node[12].appl receivedBSMs 47612
scalar RSUExampleScenario.node[12].appl generatedWSAs 0
scalar RSUExampleScenario.node[12].appl receivedWSAs 0
scalar RSUExampleScenario.node[12].nic.phy80211p busyTime 0.048112954764214
scalar RSUExampleScenario.node[12].nic.mac1609_4 ReceivedUnicastPackets 0
scalar RSUExampleScenario.node[12].nic.mac1609_4 ReceivedBroadcasts 47693
scalar RSUExampleScenario.node[12].nic.mac1609_4 SentPackets 1040
scalar RSUExampleScenario.node[12].nic.mac1609_4 SentAcknowledgements 0
scalar RSUExampleScenario.node[12].nic.mac1609_4 RetriesExceeded 0
scalar RSUExampleScenario.node[12].nic.mac1609_4 SNIRLostPackets 274
scalar RSUExampleScenario.node[12].nic.mac1609_4 RXTXLostPackets 0
scalar RSUExampleScenario.node[12].nic.mac1609_4 TotalLostPackets 274
scalar RSUExampleScenario.node[12].nic.mac1609_4 DroppedPacketsInMac 0
scalar RSUExampleScenario.node[12].nic.mac1609_4 TooLittleTime 0
scalar RSUExampleScenario.node[12].nic.mac1609_4 TimesIntoBackoff 1041
scalar RSUExampleScenario.node[12].nic.mac1609_4 SlotsBackoff 1594
scalar RSUExampleScenario.node[12].nic.mac1609_4 NumInternalContention 0
scalar RSUExampleScenario.node[12].nic.mac1609_4 totalBusyTime 5.093912
scalar RSUExampleScenario.node[12].nic.mac1609_4 retriesExceeded:count 0
attr source org_car2x_veins_modules_mac_sigRetriesExceeded
scalar RSUExampleScenario.node[12].nic.mac1609_4 sentAcks:count 0
attr source org_car2x_veins_modules_mac_sigSentAck
scalar RSUExampleScenario.node[12].nic.mac1609_4 sentPackets:count 1040
attr source org_car2x_veins_modules_mac_sigSentPacket
scalar RSUExampleScenario.node[12].nic.mac1609_4 collisions:count 0
attr source org_car2x_veins_modules_mac_sigCollision
scalar RSUExampleScenario.node[12].nic.mac1609_4 channelBusy:timeavg 0.049027064485101
attr source org_car2x_veins_modules_mac_sigChannelBusy
scalar RSUExampleScenario.node[12].veinsmobility startTime 16.1
scalar RSUExampleScenario.node[12].veinsmobility totalTime 103.9
scalar RSUExampleScenario.node[12].veinsmobility stopTime 120
scalar RSUExampleScenario.node[12].veinsmobility minSpeed 0
scalar RSUExampleScenario.node[12].veinsmobility maxSpeed 9.3168936547676
scalar RSUExampleScenario.node[12].veinsmobility totalDistance 206.39496213506
scalar RSUExampleScenario.node[12].veinsmobility totalCO2Emission 129.13602955525
scalar RSUExampleScenario.node[14].appl generatedWSMs 1
scalar RSUExampleScenario.node[14].appl receivedWSMs 73
scalar RSUExampleScenario.node[14].appl generatedBSMs 999
scalar RSUExampleScenario.node[14].appl receivedBSMs 43168
scalar RSUExampleScenario.node[14].appl generatedWSAs 0
scalar RSUExampleScenario.node[14].appl receivedWSAs 0
scalar RSUExampleScenario.node[14].nic.phy80211p busyTime 0.049375215215231
scalar RSUExampleScenario.node[14].nic.mac1609_4 ReceivedUnicastPackets 0
scalar RSUExampleScenario.node[14].nic.mac1609_4 ReceivedBroadcasts 43241
scalar RSUExampleScenario.node[14].nic.mac1609_4 SentPackets 1000
scalar RSUExampleScenario.node[14].nic.mac1609_4 SentAcknowledgements 0
scalar RSUExampleScenario.node[14].nic.mac1609_4 RetriesExceeded 0
scalar RSUExampleScenario.node[14].nic.mac1609_4 SNIRLostPackets 4088
scalar RSUExampleScenario.node[14].nic.mac1609_4 RXTXLostPackets 138
scalar RSUExampleScenario.node[14].nic.mac1609_4 TotalLostPackets 4226
scalar RSUExampleScenario.node[14].nic.mac1609_4 DroppedPacketsInMac 0
scalar RSUExampleScenario.node[14].nic.mac1609_4 TooLittleTime 0
scalar RSUExampleScenario.node[14].nic.mac1609_4 TimesIntoBackoff 1631
scalar RSUExampleScenario.node[14].nic.mac1609_4 SlotsBackoff 2418
scalar RSUExampleScenario.node[14].nic.mac1609_4 NumInternalContention 0
scalar RSUExampleScenario.node[14].nic.mac1609_4 totalBusyTime 5.037712069678
scalar RSUExampleScenario.node[14].nic.mac1609_4 retriesExceeded:count 0
attr source org_car2x_veins_modules_mac_sigRetriesExceeded
scalar RSUExampleScenario.node[14].nic.mac1609_4 sentAcks:count 0
attr source org_car2x_veins_modules_mac_sigSentAck
scalar RSUExampleScenario.node[14].nic.mac1609_4 sentPackets:count 1000
attr source org_car2x_veins_modules_mac_sigSentPacket
scalar RSUExampleScenario.node[14].nic.mac1609_4 collisions:count 0
attr source org_car2x_veins_modules_mac_sigCollision
scalar RSUExampleScenario.node[14].nic.mac1609_4 channelBusy:timeavg 0.050427548245044
attr source org_car2x_veins_modules_mac_sigChannelBusy
scalar RSUExampleScenario.node[14].veinsmobility startTime 20.1
scalar RSUExampleScenario.node[14].veinsmobility totalTime 99.9
scalar RSUExampleScenario.node[14].veinsmobility stopTime 120
scalar RSUExampleScenario.node[14].veinsmobility minSpeed 0.3592133367227
scalar RSUExampleScenario.node[14].veinsmobility maxSpeed 10.366885522069
scalar RSUExampleScenario.node[14].veinsmobility totalDistance 723.3518675745
scalar RSUExampleScenario.node[14].veinsmobility totalCO2Emission 209.07451717246
scalar RSUExampleScenario.node[15].appl generatedWSMs 1
scalar RSUExampleScenario.node[15].appl receivedWSMs 81
scalar RSUExampleScenario.node[15].appl generatedBSMs 999
scalar RSUExampleScenario.node[15].appl receivedBSMs 47099
scalar RSUExampleScenario.node[15].appl generatedWSAs 0
scalar RSUExampleScenario.node[15].appl receivedWSAs 0
scalar RSUExampleScenario.node[15].nic.phy80211p busyTime 0.049518878878895
scalar RSUExampleScenario.node[15].nic.mac1609_4 ReceivedUnicastPackets 0
scalar RSUExampleScenario.node[15].nic.mac1609_4 ReceivedBroadcasts 47180
scalar RSUExampleScenario.node[15].nic.mac1609_4 SentPackets 1000
scalar RSUExampleScenario.node[15].nic.mac1609_4 SentAcknowledgements 0
scalar RSUExampleScenario.node[15].nic.mac1609_4 RetriesExceeded 0
scalar RSUExampleScenario.node[15].nic.mac1609_4 SNIRLostPackets 287
scalar RSUExampleScenario.node[15].nic.mac1609_4 RXTXLostPackets 0
scalar RSUExampleScenario.node[15].nic.mac1609_4 TotalLostPackets 287
scalar RSUExampleScenario.node[15].nic.mac1609_4 DroppedPacketsInMac 0
scalar RSUExampleScenario.node[15].nic.mac1609_4 TooLittleTime 0
scalar RSUExampleScenario.node[15].nic.mac1609_4 TimesIntoBackoff 1000
scalar RSUExampleScenario.node[15].nic.mac1609_4 SlotsBackoff 1448
scalar RSUExampleScenario.node[15].nic.mac1609_4 NumInternalContention 0
scalar RSUExampleScenario.node[15].nic.mac1609_4 totalBusyTime 5.037712
scalar RSUExampleScenario.node[15].nic.mac1609_4 retriesExceeded:count 0
attr source org_car2x_veins_modules_mac_sigRetriesExceeded
scalar RSUExampleScenario.node[15].nic.mac1609_4 sentAcks:count 0
attr source org_car2x_veins_modules_mac_sigSentAck
scalar RSUExampleScenario.node[15].nic.mac1609_4 sentPackets:count 1000
attr source org_car2x_veins_modules_mac_sigSentPacket
scalar RSUExampleScenario.node[15].nic.mac1609_4 collisions:count 0
attr source org_car2x_veins_modules_mac_sigCollision
scalar RSUExampleScenario.node[15].nic.mac1609_4 channelBusy:timeavg 0.050427547547566
attr source org_car2x_veins_modules_mac_sigChannelBusy
scalar RSUExampleScenario.node[15].veinsmobility startTime 20.1
scalar RSUExampleScenario.node[15].veinsmobility totalTime 99.9
scalar RSUExampleScenario.node[15].veinsmobility stopTime 120
scalar RSUExampleScenario.node[15].veinsmobility minSpeed 0
scalar RSUExampleScenario.node[15].veinsmobility maxSpeed 10.378287795682
scalar RSUExampleScenario.node[15].veinsmobility totalDistance 198.89395223753
scalar RSUExampleScenario.node[15].veinsmobility totalCO2Emission 125.65253483736
scalar RSUExampleScenario.node[17].appl generatedWSMs 1
scalar RSUExampleScenario.node[17].appl receivedWSMs 81
scalar RSUExampleScenario.node[17].appl generatedBSMs 959
scalar RSUExampleScenario.node[17].appl receivedBSMs 46488
scalar RSUExampleScenario.node[17].appl generatedWSAs 0
scalar RSUExampleScenario.node[17].appl receivedWSAs 0
scalar RSUExampleScenario.node[17].nic.phy80211p busyTime 0.050911949947877
scalar RSUExampleScenario.node[17].nic.mac1609_4 ReceivedUnicastPackets 0
scalar RSUExampleScenario.node[17].nic.mac1609_4 ReceivedBroadcasts 46569
scalar RSUExampleScenario.node[17].nic.mac1609_4 SentPackets 960
scalar RSUExampleScenario.node[17].nic.mac1609_4 SentAcknowledgements 0
scalar RSUExampleScenario.node[17].nic.mac1609_4 RetriesExceeded 0
scalar RSUExampleScenario.node[17].nic.mac1609_4 SNIRLostPackets 278
scalar RSUExampleScenario.node[17].nic.mac1609_4 RXTXLostPackets 0
scalar RSUExampleScenario.node[17].nic.mac1609_4 TotalLostPackets 278
scalar RSUExampleScenario.node[17].nic.mac1609_4 DroppedPacketsInMac 0
scalar RSUExampleScenario.node[17].nic.mac1609_4 TooLittleTime 0
scalar RSUExampleScenario.node[17].nic.mac1609_4 TimesIntoBackoff 961
scalar RSUExampleScenario.node[17].nic.mac1609_4 SlotsBackoff 1417
scalar RSUExampleScenario.node[17].nic.mac1609_4 NumInternalContention 0
scalar RSUExampleScenario.node[17].nic.mac1609_4 totalBusyTime 4.969032
scalar RSUExampleScenario.node[17].nic.mac1609_4 retriesExceeded:count 0
attr source org_car2x_veins_modules_mac_sigRetriesExceeded
scalar RSUExampleScenario.node[17].nic.mac1609_4 sentAcks:count 0
attr source org_car2x_veins_modules_mac_sigSentAck
scalar RSUExampleScenario.node[17].nic.mac1609_4 sentPackets:count 960
attr source org_car2x_veins_modules_mac_sigSentPacket
scalar RSUExampleScenario.node[17].nic.mac1609_4 collisions:count 0
attr source org_car2x_veins_modules_mac_sigCollision
scalar RSUExampleScenario.node[17].nic.mac1609_4 channelBusy:timeavg 0.051814723670507
attr source org_car2x_veins_modules_mac_sigChannelBusy
scalar RSUExampleScenario.node[17].veinsmobility startTime 24.1
scalar RSUExampleScenario.node[17].veinsmobility totalTime 95.9
scalar RSUExampleScenario.node[17].veinsmobility stopTime 120
scalar RSUExampleScenario.node[17].veinsmobility minSpeed 0
scalar RSUExampleScenario.node[17].veinsmobility maxSpeed 7.2420139031684
scalar RSUExampleScenario.node[17].veinsmobility totalDistance 223.59698085693
scalar RSUExampleScenario.node[17].veinsmobility totalCO2Emission 125.75436796803
scalar RSUExampleScenario.node[18].appl generatedWSMs 1
scalar RSUExampleScenario.node[18].appl receivedWSMs 73
scalar RSUExampleScenario.node[18].appl generatedBSMs 949
scalar RSUExampleScenario.node[18].appl receivedBSMs 42745
scalar RSUExampleScenario.node[18].appl generatedWSAs 0
scalar RSUExampleScenario.node[18].appl receivedWSAs 0
scalar RSUExampleScenario.node[18].nic.phy80211p busyTime 0.05126212855639
scalar RSUExampleScenario.node[18].nic.mac1609_4 ReceivedUnicastPackets 0
scalar RSUExampleScenario.node[18].nic.mac1609_4 ReceivedBroadcasts 42818
scalar RSUExampleScenario.node[18].nic.mac1609_4 SentPackets 950
scalar RSUExampleScenario.node[18].nic.mac1609_4 SentAcknowledgements 0
scalar RSUExampleScenario.node[18].nic.mac1609_4 RetriesExceeded 0
scalar RSUExampleScenario.node[18].nic.mac1609_4 SNIRLostPackets 3859
scalar RSUExampleScenario.node[18].nic.mac1609_4 RXTXLostPackets 0
scalar RSUExampleScenario.node[18].nic.mac1609_4 TotalLostPackets 3859
scalar RSUExampleScenario.node[18].nic.mac1609_4 DroppedPacketsInMac 0
scalar RSUExampleScenario.node[18].nic.mac1609_4 TooLittleTime 0
scalar RSUExampleScenario.node[18].nic.mac1609_4 TimesIntoBackoff 950
scalar RSUExampleScenario.node[18].nic.mac1609_4 SlotsBackoff 1457
scalar RSUExampleScenario.node[18].nic.mac1609_4 NumInternalContention 0
scalar RSUExampleScenario.node[18].nic.mac1609_4 totalBusyTime 4.950302118819
scalar RSUExampleScenario.node[18].nic.mac1609_4 retriesExceeded:count 0
attr source org_car2x_veins_modules_mac_sigRetriesExceeded
scalar RSUExampleScenario.node[18].nic.mac1609_4 sentAcks:count 0
attr source org_car2x_veins_modules_mac_sigSentAck
scalar RSUExampleScenario.node[18].nic.mac1609_4 sentPackets:count 950
attr source org_car2x_veins_modules_mac_sigSentPacket
scalar RSUExampleScenario.node[18].nic.mac1609_4 collisions:count 0
attr source org_car2x_veins_modules_mac_sigCollision
scalar RSUExampleScenario.node[18].nic.mac1609_4 channelBusy:timeavg 0.052163352147741
attr source org_car2x_veins_modules_mac_sigChannelBusy
scalar RSUExampleScenario.node[18].veinsmobility startTime 25.1
scalar RSUExampleScenario.node[18].veinsmobility totalTime 94.9
scalar RSUExampleScenario.node[18].veinsmobility stopTime 120
scalar RSUExampleScenario.node[18].veinsmobility minSpeed 0.81012577628412
scalar RSUExampleScenario.node[18].veinsmobility maxSpeed 11.075924043868
scalar RSUExampleScenario.node[18].veinsmobility totalDistance 707.72301696713
scalar RSUExampleScenario.node[18].veinsmobility totalCO2Emission 205.53109519256
scalar RSUExampleScenario.node[21].appl generatedWSMs 1
scalar RSUExampleScenario.node[21].appl receivedWSMs 76
scalar RSUExampleScenario.node[21].appl generatedBSMs 899
scalar RSUExampleScenario.node[21].appl receivedBSMs 42132
scalar RSUExampleScenario.node[21].appl generatedWSAs 0
scalar RSUExampleScenario.node[21].appl receivedWSAs 0
scalar RSUExampleScenario.node[21].nic.phy80211p busyTime 0.053002625139055
scalar RSUExampleScenario.node[21].nic.mac1609_4 ReceivedUnicastPackets 0
scalar RSUExampleScenario.node[21].nic.mac1609_4 ReceivedBroadcasts 42208
scalar RSUExampleScenario.node[21].nic.mac1609_4 SentPackets 900
scalar RSUExampleScenario.node[21].nic.mac1609_4 SentAcknowledgements 0
scalar RSUExampleScenario.node[21].nic.mac1609_4 RetriesExceeded 0
scalar RSUExampleScenario.node[21].nic.mac1609_4 SNIRLostPackets 3509
scalar RSUExampleScenario.node[21].nic.mac1609_4 RXTXLostPackets 0
scalar RSUExampleScenario.node[21].nic.mac1609_4 TotalLostPackets 3509
scalar RSUExampleScenario.node[21].nic.mac1609_4 DroppedPacketsInMac 0
scalar RSUExampleScenario.node[21].nic.mac1609_4 TooLittleTime 0
scalar RSUExampleScenario.node[21].nic.mac1609_4 TimesIntoBackoff 900
scalar RSUExampleScenario.node[21].nic.mac1609_4 SlotsBackoff 1348
scalar RSUExampleScenario.node[21].nic.mac1609_4 NumInternalContention 0
scalar RSUExampleScenario.node[21].nic.mac1609_4 totalBusyTime 4.845212
scalar RSUExampleScenario.node[21].nic.mac1609_4 retriesExceeded:count 0
attr source org_car2x_veins_modules_mac_sigRetriesExceeded
scalar RSUExampleScenario.node[21].nic.mac1609_4 sentAcks:count 0
attr source org_car2x_veins_modules_mac_sigSentAck
scalar RSUExampleScenario.node[21].nic.mac1609_4 sentPackets:count 900
attr source org_car2x_veins_modules_mac_sigSentPacket
scalar RSUExampleScenario.node[21].nic.mac1609_4 collisions:count 0
attr source org_car2x_veins_modules_mac_sigCollision
scalar RSUExampleScenario.node[21].nic.mac1609_4 channelBusy:timeavg 0.053895572858746
attr source org_car2x_veins_modules_mac_sigChannelBusy
scalar RSUExampleScenario.node[21].veinsmobility startTime 30.1
scalar RSUExampleScenario.node[21].veinsmobility totalTime 89.9
scalar RSUExampleScenario.node[21].veinsmobility stopTime 120
scalar RSUExampleScenario.node[21].veinsmobility minSpeed 5.3926596940221
scalar RSUExampleScenario.node[21].veinsmobility maxSpeed 8.8528616701666
scalar RSUExampleScenario.node[21].veinsmobility totalDistance 692.11509815533
scalar RSUExampleScenario.node[21].veinsmobility totalCO2Emission 196.91937138035
scalar RSUExampleScenario.node[23].appl generatedWSMs 1
scalar RSUExampleScenario.node[23].appl receivedWSMs 81
scalar RSUExampleScenario.node[23].appl generatedBSMs 879
scalar RSUExampleScenario.node[23].appl receivedBSMs 44902
scalar RSUExampleScenario.node[23].appl generatedWSAs 0
scalar RSUExampleScenario.node[23].appl receivedWSAs 0
scalar RSUExampleScenario.node[23].nic.phy80211p busyTime 0.053688009101262
scalar RSUExampleScenario.node[23].nic.mac1609_4 ReceivedUnicastPackets 0
scalar RSUExampleScenario.node[23].nic.mac1609_4 ReceivedBroadcasts 44983
scalar RSUExampleScenario.node[23].nic.mac1609_4 SentPackets 880
scalar RSUExampleScenario.node[23].nic.mac1609_4 SentAcknowledgements 0
scalar RSUExampleScenario.node[23].nic.mac1609_4 RetriesExceeded 0
scalar RSUExampleScenario.node[23].nic.mac1609_4 SNIRLostPackets 294
scalar RSUExampleScenario.node[23].nic.mac1609_4 RXTXLostPackets 0
scalar RSUExampleScenario.node[23].nic.mac1609_4 TotalLostPackets 294
scalar RSUExampleScenario.node[23].nic.mac1609_4 DroppedPacketsInMac 0
scalar RSUExampleScenario.node[23].nic.mac1609_4 TooLittleTime 0
scalar RSUExampleScenario.node[23].nic.mac1609_4 TimesIntoBackoff 1339
scalar RSUExampleScenario.node[23].nic.mac1609_4 SlotsBackoff 1991
scalar RSUExampleScenario.node[23].nic.mac1609_4 NumInternalContention 0
scalar RSUExampleScenario.node[23].nic.mac1609_4 totalBusyTime 4.797352
scalar RSUExampleScenario.node[23].nic.mac1609_4 retriesExceeded:count 0
attr source org_car2x_veins_modules_mac_sigRetriesExceeded
scalar RSUExampleScenario.node[23].nic.mac1609_4 sentAcks:count 0
attr source org_car2x_veins_modules_mac_sigSentAck
scalar RSUExampleScenario.node[23].nic.mac1609_4 sentPackets:count 880
attr source org_car2x_veins_modules_mac_sigSentPacket
scalar RSUExampleScenario.node[23].nic.mac1609_4 collisions:count 0
attr source org_car2x_veins_modules_mac_sigCollision
scalar RSUExampleScenario.node[23].nic.mac1609_4 channelBusy:timeavg 0.054577383390229
attr source org_car2x_veins_modules_mac_sigChannelBusy
scalar RSUExampleScenario.node[23].veinsmobility startTime 32.1
scalar RSUExampleScenario.node[23].veinsmobility totalTime 87.9
scalar RSUExampleScenario.node[23].veinsmobility stopTime 120
scalar RSUExampleScenario.node[23].veinsmobility minSpeed 0
scalar RSUExampleScenario.node[23].veinsmobility maxSpeed 7.4875783744015
scalar RSUExampleScenario.node[23].veinsmobility totalDistance 191.39294298814
scalar RSUExampleScenario.node[23].veinsmobility totalCO2Emission 116.88245736103
scalar RSUExampleScenario.node[24].appl generatedWSMs 1
scalar RSUExampleScenario.node[24].appl receivedWSMs 73
scalar RSUExampleScenario.node[24].appl generatedBSMs 859
scalar RSUExampleScenario.node[24].appl receivedBSMs 41547
scalar RSUExampleScenario.node[24].appl generatedWSAs 0
scalar RSUExampleScenario.node[24].appl receivedWSAs 0
scalar RSUExampleScenario.node[24].nic.phy80211p busyTime 0.054378393480801
scalar RSUExampleScenario.node[24].nic.mac1609_4 ReceivedUnicastPackets 0
scalar RSUExampleScenario.node[24].nic.mac1609_4 ReceivedBroadcasts 41620
scalar RSUExampleScenario.node[24].nic.mac1609_4 SentPackets 860
scalar RSUExampleScenario.node[24].nic.mac1609_4 SentAcknowledgements 0
scalar RSUExampleScenario.node[24].nic.mac1609_4 RetriesExceeded 0
scalar RSUExampleScenario.node[24].nic.mac1609_4 SNIRLostPackets 3196
scalar RSUExampleScenario.node[24].nic.mac1609_4 RXTXLostPackets 0
scalar RSUExampleScenario.node[24].nic.mac1609_4 TotalLostPackets 3196
scalar RSUExampleScenario.node[24].nic.mac1609_4 DroppedPacketsInMac 0
scalar RSUExampleScenario.node[24].nic.mac1609_4 TooLittleTime 0
scalar RSUExampleScenario.node[24].nic.mac1609_4 TimesIntoBackoff 860
scalar RSUExampleScenario.node[24].nic.mac1609_4 SlotsBackoff 1254
scalar RSUExampleScenario.node[24].nic.mac1609_4 NumInternalContention 0
scalar RSUExampleScenario.node[24].nic.mac1609_4 totalBusyTime 4.74718
scalar RSUExampleScenario.node[24].nic.mac1609_4 retriesExceeded:count 0
attr source org_car2x_veins_modules_mac_sigRetriesExceeded
scalar RSUExampleScenario.node[24].nic.mac1609_4 sentAcks:count 0
attr source org_car2x_veins_modules_mac_sigSentAck
scalar RSUExampleScenario.node[24].nic.mac1609_4 sentPackets:count 860
attr source org_car2x_veins_modules_mac_sigSentPacket
scalar RSUExampleScenario.node[24].nic.mac1609_4 collisions:count 0
attr source org_car2x_veins_modules_mac_sigCollision
scalar RSUExampleScenario.node[24].nic.mac1609_4 channelBusy:timeavg 0.055264027939476
attr source org_car2x_veins_modules_mac_sigChannelBusy
scalar RSUExampleScenario.node[24].veinsmobility startTime 34.1
scalar RSUExampleScenario.node[24].veinsmobility totalTime 85.9
scalar RSUExampleScenario.node[24].veinsmobility stopTime 120
scalar RSUExampleScenario.node[24].veinsmobility minSpeed 5.5942559886131
scalar RSUExampleScenario.node[24].veinsmobility maxSpeed 9.407656864378
scalar RSUExampleScenario.node[24].veinsmobility totalDistance 735.90254668548
scalar RSUExampleScenario.node[24].veinsmobility totalCO2Emission 201.82738143495
scalar RSUExampleScenario.node[25].appl generatedWSMs 1
scalar RSUExampleScenario.node[25].appl receivedWSMs 55
scalar RSUExampleScenario.node[25].appl generatedBSMs 849
scalar RSUExampleScenario.node[25].appl receivedBSMs 41289
scalar RSUExampleScenario.node[25].appl generatedWSAs 0
scalar RSUExampleScenario.node[25].appl receivedWSAs 0
scalar RSUExampleScenario.node[25].nic.phy80211p busyTime 0.054662049469973
scalar RSUExampleScenario.node[25].nic.mac1609_4 ReceivedUnicastPackets 0
scalar RSUExampleScenario.node[25].nic.mac1609_4 ReceivedBroadcasts 41344
scalar RSUExampleScenario.node[25].nic.mac1609_4 SentPackets 850
scalar RSUExampleScenario.node[25].nic.mac1609_4 SentAcknowledgements 0
scalar RSUExampleScenario.node[25].nic.mac1609_4 RetriesExceeded 0
scalar RSUExampleScenario.node[25].nic.mac1609_4 SNIRLostPackets 3209
scalar RSUExampleScenario.node[25].nic.mac1609_4 RXTXLostPackets 0
scalar RSUExampleScenario.node[25].nic.mac1609_4 TotalLostPackets 3209
scalar RSUExampleScenario.node[25].nic.mac1609_4 DroppedPacketsInMac 0
scalar RSUExampleScenario.node[25].nic.mac1609_4 TooLittleTime 0
scalar RSUExampleScenario.node[25].nic.mac1609_4 TimesIntoBackoff 1389
scalar RSUExampleScenario.node[25].nic.mac1609_4 SlotsBackoff 2164
scalar RSUExampleScenario.node[25].nic.mac1609_4 NumInternalContention 0
scalar RSUExampleScenario.node[25].nic.mac1609_4 totalBusyTime 4.715834
scalar RSUExampleScenario.node[25].nic.mac1609_4 retriesExceeded:count 0
attr source org_car2x_veins_modules_mac_sigRetriesExceeded
scalar RSUExampleScenario.node[25].nic.mac1609_4 sentAcks:count 0
attr source org_car2x_veins_modules_mac_sigSentAck
scalar RSUExampleScenario.node[25].nic.mac1609_4 sentPackets:count 850
attr source org_car2x_veins_modules_mac_sigSentPacket
scalar RSUExampleScenario.node[25].nic.mac1609_4 collisions:count 0
attr source org_car2x_veins_modules_mac_sigCollision
scalar RSUExampleScenario.node[25].nic.mac1609_4 channelBusy:timeavg 0.055545747938762
attr source org_car2x_veins_modules_mac_sigChannelBusy
scalar RSUExampleScenario.node[25].veinsmobility startTime 35.1
scalar RSUExampleScenario.node[25].veinsmobility totalTime 84.9
scalar RSUExampleScenario.node[25].veinsmobility stopTime 120
scalar RSUExampleScenario.node[25].veinsmobility minSpeed 5.4571643119305
scalar RSUExampleScenario.node[25].veinsmobility maxSpeed 10.856997469602
scalar RSUExampleScenario.node[25].veinsmobility totalDistance 676.70589909915
scalar RSUExampleScenario.node[25].veinsmobility totalCO2Emission 188.15582503997
scalar RSUExampleScenario.node[26].appl generatedWSMs 1
scalar RSUExampleScenario.node[26].appl receivedWSMs 57
scalar RSUExampleScenario.node[26].appl generatedBSMs 839
scalar RSUExampleScenario.node[26].appl receivedBSMs 43944
scalar RSUExampleScenario.node[26].appl generatedWSAs 0
scalar RSUExampleScenario.node[26].appl receivedWSAs 0
scalar RSUExampleScenario.node[26].nic.phy80211p busyTime 0.055003671036956
scalar RSUExampleScenario.node[26].nic.mac1609_4 ReceivedUnicastPackets 0
scalar RSUExampleScenario.node[26].nic.mac1609_4 ReceivedBroadcasts 44001
scalar RSUExampleScenario.node[26].nic.mac1609_4 SentPackets 840
scalar RSUExampleScenario.node[26].nic.mac1609_4 SentAcknowledgements 0
scalar RSUExampleScenario.node[26].nic.mac1609_4 RetriesExceeded 0
scalar RSUExampleScenario.node[26].nic.mac1609_4 SNIRLostPackets 302
scalar RSUExampleScenario.node[26].nic.mac1609_4 RXTXLostPackets 0
scalar RSUExampleScenario.node[26].nic.mac1609_4 TotalLostPackets 302
scalar RSUExampleScenario.node[26].nic.mac1609_4 DroppedPacketsInMac 0
scalar RSUExampleScenario.node[26].nic.mac1609_4 TooLittleTime 0
scalar RSUExampleScenario.node[26].nic.mac1609_4 TimesIntoBackoff 840
scalar RSUExampleScenario.node[26].nic.mac1609_4 SlotsBackoff 1332
scalar RSUExampleScenario.node[26].nic.mac1609_4 NumInternalContention 0
scalar RSUExampleScenario.node[26].nic.mac1609_4 totalBusyTime 4.688784
scalar RSUExampleScenario.node[26].nic.mac1609_4 retriesExceeded:count 0
attr source org_car2x_veins_modules_mac_sigRetriesExceeded
scalar RSUExampleScenario.node[26].nic.mac1609_4 sentAcks:count 0
attr source org_car2x_veins_modules_mac_sigSentAck
scalar RSUExampleScenario.node[26].nic.mac1609_4 sentPackets:count 840
attr source org_car2x_veins_modules_mac_sigSentPacket
scalar RSUExampleScenario.node[26].nic.mac1609_4 collisions:count 0
attr source org_car2x_veins_modules_mac_sigCollision
scalar RSUExampleScenario.node[26].nic.mac1609_4 channelBusy:timeavg 0.055885387365921
attr source org_car2x_veins_modules_mac_sigChannelBusy
scalar RSUExampleScenario.node[26].veinsmobility startTime 36.1
scalar RSUExampleScenario.node[26].veinsmobility totalTime 83.9
scalar RSUExampleScenario.node[26].veinsmobility stopTime 120
scalar RSUExampleScenario.node[26].veinsmobility minSpeed 0
scalar RSUExampleScenario.node[26].veinsmobility maxSpeed 9.7671672182596
scalar RSUExampleScenario.node[26].veinsmobility totalDistance 183.89193366907
scalar RSUExampleScenario.node[26].veinsmobility totalCO2Emission 112.81577601502
scalar RSUExampleScenario.node[27].appl generatedWSMs 1
scalar RSUExampleScenario.node[27].appl receivedWSMs 50
scalar RSUExampleScenario.node[27].appl generatedBSMs 819
scalar RSUExampleScenario.node[27].appl receivedBSMs 40886
scalar RSUExampleScenario.node[27].appl generatedWSAs 0
scalar RSUExampleScenario.node[27].appl receivedWSAs 0
scalar RSUExampleScenario.node[27].nic.phy80211p busyTime 0.055683711843717
scalar RSUExampleScenario.node[27].nic.mac1609_4 ReceivedUnicastPackets 0
scalar RSUExampleScenario.node[27].nic.mac1609_4 ReceivedBroadcasts 40936
scalar RSUExampleScenario.node[27].nic.mac1609_4 SentPackets 820
scalar RSUExampleScenario.node[27].nic.mac1609_4 SentAcknowledgements 0
scalar RSUExampleScenario.node[27].nic.mac1609_4 RetriesExceeded 0
scalar RSUExampleScenario.node[27].nic.mac1609_4 SNIRLostPackets 2846
scalar RSUExampleScenario.node[27].nic.mac1609_4 RXTXLostPackets 0
scalar RSUExampleScenario.node[27].nic.mac1609_4 TotalLostPackets 2846
scalar RSUExampleScenario.node[27].nic.mac1609_4 DroppedPacketsInMac 0
scalar RSUExampleScenario.node[27].nic.mac1609_4 TooLittleTime 0
scalar RSUExampleScenario.node[27].nic.mac1609_4 TimesIntoBackoff 820
scalar RSUExampleScenario.node[27].nic.mac1609_4 SlotsBackoff 1265
scalar RSUExampleScenario.node[27].nic.mac1609_4 NumInternalContention 0
scalar RSUExampleScenario.node[27].nic.mac1609_4 totalBusyTime 4.632372
scalar RSUExampleScenario.node[27].nic.mac1609_4 retriesExceeded:count 0
attr source org_car2x_veins_modules_mac_sigRetriesExceeded
scalar RSUExampleScenario.node[27].nic.mac1609_4 sentAcks:count 0
attr source org_car2x_veins_modules_mac_sigSentAck
scalar RSUExampleScenario.node[27].nic.mac1609_4 sentPackets:count 820
attr source org_car2x_veins_modules_mac_sigSentPacket
scalar RSUExampleScenario.node[27].nic.mac1609_4 collisions:count 0
attr source org_car2x_veins_modules_mac_sigCollision
scalar RSUExampleScenario.node[27].nic.mac1609_4 channelBusy:timeavg 0.056561318681326
attr source org_car2x_veins_modules_mac_sigChannelBusy
scalar RSUExampleScenario.node[27].veinsmobility startTime 38.1
scalar RSUExampleScenario.node[27].veinsmobility totalTime 81.9
scalar RSUExampleScenario.node[27].veinsmobility stopTime 120
scalar RSUExampleScenario.node[27].veinsmobility minSpeed 5.4509769814078
scalar RSUExampleScenario.node[27].veinsmobility maxSpeed 10.189999400229
scalar RSUExampleScenario.node[27].veinsmobility totalDistance 718.60615666924
scalar RSUExampleScenario.node[27].veinsmobility totalCO2Emission 202.16519532376
scalar RSUExampleScenario.node[28].appl generatedWSMs 1
scalar RSUExampleScenario.node[28].appl receivedWSMs 51
scalar RSUExampleScenario.node[28].appl generatedBSMs 799
scalar RSUExampleScenario.node[28].appl receivedBSMs 40232
scalar RSUExampleScenario.node[28].appl generatedWSAs 0
scalar RSUExampleScenario.node[28].appl receivedWSAs 0
scalar RSUExampleScenario.node[28].nic.phy80211p busyTime 0.056368861076349
scalar RSUExampleScenario.node[28].nic.mac1609_4 ReceivedUnicastPackets 0
scalar RSUExampleScenario.node[28].nic.mac1609_4 ReceivedBroadcasts 40283
scalar RSUExampleScenario.node[28].nic.mac1609_4 SentPackets 800
scalar RSUExampleScenario.node[28].nic.mac1609_4 SentAcknowledgements 0
scalar RSUExampleScenario.node[28].nic.mac1609_4 RetriesExceeded 0
scalar RSUExampleScenario.node[28].nic.mac1609_4 SNIRLostPackets 2957
scalar RSUExampleScenario.node[28].nic.mac1609_4 RXTXLostPackets 0
scalar RSUExampleScenario.node[28].nic.mac1609_4 TotalLostPackets 2957
scalar RSUExampleScenario.node[28].nic.mac1609_4 DroppedPacketsInMac 0
scalar RSUExampleScenario.node[28].nic.mac1609_4 TooLittleTime 0
scalar RSUExampleScenario.node[28].nic.mac1609_4 TimesIntoBackoff 801
scalar RSUExampleScenario.node[28].nic.mac1609_4 SlotsBackoff 1189
scalar RSUExampleScenario.node[28].nic.mac1609_4 NumInternalContention 0
scalar RSUExampleScenario.node[28].nic.mac1609_4 totalBusyTime 4.573648
scalar RSUExampleScenario.node[28].nic.mac1609_4 retriesExceeded:count 0
attr source org_car2x_veins_modules_mac_sigRetriesExceeded
scalar RSUExampleScenario.node[28].nic.mac1609_4 sentAcks:count 0
attr source org_car2x_veins_modules_mac_sigSentAck
scalar RSUExampleScenario.node[28].nic.mac1609_4 sentPackets:count 800
attr source org_car2x_veins_modules_mac_sigSentPacket
scalar RSUExampleScenario.node[28].nic.mac1609_4 collisions:count 0
attr source org_car2x_veins_modules_mac_sigCollision
scalar RSUExampleScenario.node[28].nic.mac1609_4 channelBusy:timeavg 0.057242152690869
attr source org_car2x_veins_modules_mac_sigChannelBusy
scalar RSUExampleScenario.node[28].veinsmobility startTime 40.1
scalar RSUExampleScenario.node[28].veinsmobility totalTime 79.9
scalar RSUExampleScenario.node[28].veinsmobility stopTime 120
scalar RSUExampleScenario.node[28].veinsmobility minSpeed 5.411445760952
scalar RSUExampleScenario.node[28].veinsmobility maxSpeed 10.348379690203
scalar RSUExampleScenario.node[28].veinsmobility totalDistance 661.24316150453
scalar RSUExampleScenario.node[28].veinsmobility totalCO2Emission 184.18839323418
scalar RSUExampleScenario.node[29].appl generatedWSMs 1
scalar RSUExampleScenario.node[29].appl receivedWSMs 48
scalar RSUExampleScenario.node[29].appl generatedBSMs 799
scalar RSUExampleScenario.node[29].appl receivedBSMs 40613
scalar RSUExampleScenario.node[29].appl generatedWSAs 0
scalar RSUExampleScenario.node[29].appl receivedWSAs 0
scalar RSUExampleScenario.node[29].nic.phy80211p busyTime 0.056368861076349
scalar RSUExampleScenario.node[29].nic.mac1609_4 ReceivedUnicastPackets 0
scalar RSUExampleScenario.node[29].nic.mac1609_4 ReceivedBroadcasts 40661
scalar RSUExampleScenario.node[29].nic.mac1609_4 SentPackets 800
scalar RSUExampleScenario.node[29].nic.mac1609_4 SentAcknowledgements 0
scalar RSUExampleScenario.node[29].nic.mac1609_4 RetriesExceeded 0
scalar RSUExampleScenario.node[29].nic.mac1609_4 SNIRLostPackets 2579
scalar RSUExampleScenario.node[29].nic.mac1609_4 RXTXLostPackets 0
scalar RSUExampleScenario.node[29].nic.mac1609_4 TotalLostPackets 2579
scalar RSUExampleScenario.node[29].nic.mac1609_4 DroppedPacketsInMac 0
scalar RSUExampleScenario.node[29].nic.mac1609_4 TooLittleTime 0
scalar RSUExampleScenario.node[29].nic.mac1609_4 TimesIntoBackoff 800
scalar RSUExampleScenario.node[29].nic.mac1609_4 SlotsBackoff 1215
scalar RSUExampleScenario.node[29].nic.mac1609_4 NumInternalContention 0
scalar RSUExampleScenario.node[29].nic.mac1609_4 totalBusyTime 4.573648
scalar RSUExampleScenario.node[29].nic.mac1609_4 retriesExceeded:count 0
attr source org_car2x_veins_modules_mac_sigRetriesExceeded
scalar RSUExampleScenario.node[29].nic.mac1609_4 sentAcks:count 0
attr source org_car2x_veins_modules_mac_sigSentAck
scalar RSUExampleScenario.node[29].nic.mac1609_4 sentPackets:count 800
attr source org_car2x_veins_modules_mac_sigSentPacket
scalar RSUExampleScenario.node[29].nic.mac1609_4 collisions:count 0
attr source org_car2x_veins_modules_mac_sigCollision
scalar RSUExampleScenario.node[29].nic.mac1609_4 channelBusy:timeavg 0.057242152690869
attr source org_car2x_veins_modules_mac_sigChannelBusy
scalar RSUExampleScenario.node[29].veinsmobility startTime 40.1
scalar RSUExampleScenario.node[29].veinsmobility totalTime 79.9
scalar RSUExampleScenario.node[29].veinsmobility stopTime 120
scalar RSUExampleScenario.node[29].veinsmobility minSpeed 5.3309431360397
scalar RSUExampleScenario.node[29].veinsmobility maxSpeed 10.521825599375
scalar RSUExampleScenario.node[29].veinsmobility totalDistance 701.43271878645
scalar RSUExampleScenario.node[29].veinsmobility totalCO2Emission 202.89952045523
scalar RSUExampleScenario.node[30].appl generatedWSMs 1
scalar RSUExampleScenario.node[30].appl receivedWSMs 49
scalar RSUExampleScenario.node[30].appl generatedBSMs 779
scalar RSUExampleScenario.node[30].appl receivedBSMs 40264
scalar RSUExampleScenario.node[30].appl generatedWSAs 0
scalar RSUExampleScenario.node[30].appl receivedWSAs 0
scalar RSUExampleScenario.node[30].nic.phy80211p busyTime 0.057038767650835
scalar RSUExampleScenario.node[30].nic.mac1609_4 ReceivedUnicastPackets 0
scalar RSUExampleScenario.node[30].nic.mac1609_4 ReceivedBroadcasts 40313
scalar RSUExampleScenario.node[30].nic.mac1609_4 SentPackets 780
scalar RSUExampleScenario.node[30].nic.mac1609_4 SentAcknowledgements 0
scalar RSUExampleScenario.node[30].nic.mac1609_4 RetriesExceeded 0
scalar RSUExampleScenario.node[30].nic.mac1609_4 SNIRLostPackets 2346
scalar RSUExampleScenario.node[30].nic.mac1609_4 RXTXLostPackets 0
scalar RSUExampleScenario.node[30].nic.mac1609_4 TotalLostPackets 2346
scalar RSUExampleScenario.node[30].nic.mac1609_4 DroppedPacketsInMac 0
scalar RSUExampleScenario.node[30].nic.mac1609_4 TooLittleTime 0
scalar RSUExampleScenario.node[30].nic.mac1609_4 TimesIntoBackoff 780
scalar RSUExampleScenario.node[30].nic.mac1609_4 SlotsBackoff 1148
scalar RSUExampleScenario.node[30].nic.mac1609_4 NumInternalContention 0
scalar RSUExampleScenario.node[30].nic.mac1609_4 totalBusyTime 4.510996
scalar RSUExampleScenario.node[30].nic.mac1609_4 retriesExceeded:count 0
attr source org_car2x_veins_modules_mac_sigRetriesExceeded
scalar RSUExampleScenario.node[30].nic.mac1609_4 sentAcks:count 0
attr source org_car2x_veins_modules_mac_sigSentAck
scalar RSUExampleScenario.node[30].nic.mac1609_4 sentPackets:count 780
attr source org_car2x_veins_modules_mac_sigSentPacket
scalar RSUExampleScenario.node[30].nic.mac1609_4 collisions:count 0
attr source org_car2x_veins_modules_mac_sigCollision
scalar RSUExampleScenario.node[30].nic.mac1609_4 channelBusy:timeavg 0.057907522464702
attr source org_car2x_veins_modules_mac_sigChannelBusy
scalar RSUExampleScenario.node[30].veinsmobility startTime 42.1
scalar RSUExampleScenario.node[30].veinsmobility totalTime 77.9
scalar RSUExampleScenario.node[30].veinsmobility stopTime 120
scalar RSUExampleScenario.node[30].veinsmobility minSpeed 5.10359594541
scalar RSUExampleScenario.node[30].veinsmobility maxSpeed 11.283316116084
scalar RSUExampleScenario.node[30].veinsmobility totalDistance 684.08538295419
[...]
scalar RSUExampleScenario.node[76].appl receivedBSMs 7652
scalar RSUExampleScenario.node[76].appl generatedWSAs 0
scalar RSUExampleScenario.node[76].appl receivedWSAs 0
scalar RSUExampleScenario.node[76].nic.phy80211p busyTime 0.073817142857139
scalar RSUExampleScenario.node[76].nic.mac1609_4 ReceivedUnicastPackets 0
scalar RSUExampleScenario.node[76].nic.mac1609_4 ReceivedBroadcasts 7658
scalar RSUExampleScenario.node[76].nic.mac1609_4 SentPackets 120
scalar RSUExampleScenario.node[76].nic.mac1609_4 SentAcknowledgements 0
scalar RSUExampleScenario.node[76].nic.mac1609_4 RetriesExceeded 0
scalar RSUExampleScenario.node[76].nic.mac1609_4 SNIRLostPackets 781
scalar RSUExampleScenario.node[76].nic.mac1609_4 RXTXLostPackets 0
scalar RSUExampleScenario.node[76].nic.mac1609_4 TotalLostPackets 781
scalar RSUExampleScenario.node[76].nic.mac1609_4 DroppedPacketsInMac 0
scalar RSUExampleScenario.node[76].nic.mac1609_4 TooLittleTime 0
scalar RSUExampleScenario.node[76].nic.mac1609_4 TimesIntoBackoff 120
scalar RSUExampleScenario.node[76].nic.mac1609_4 SlotsBackoff 174
scalar RSUExampleScenario.node[76].nic.mac1609_4 NumInternalContention 0
scalar RSUExampleScenario.node[76].nic.mac1609_4 totalBusyTime 0.891152
scalar RSUExampleScenario.node[76].nic.mac1609_4 retriesExceeded:count 0
attr source org_car2x_veins_modules_mac_sigRetriesExceeded
scalar RSUExampleScenario.node[76].nic.mac1609_4 sentAcks:count 0
attr source org_car2x_veins_modules_mac_sigSentAck
scalar RSUExampleScenario.node[76].nic.mac1609_4 sentPackets:count 120
attr source org_car2x_veins_modules_mac_sigSentPacket
scalar RSUExampleScenario.node[76].nic.mac1609_4 collisions:count 0
attr source org_car2x_veins_modules_mac_sigCollision
scalar RSUExampleScenario.node[76].nic.mac1609_4 channelBusy:timeavg 0.074886722689072
attr source org_car2x_veins_modules_mac_sigChannelBusy
scalar RSUExampleScenario.node[76].veinsmobility startTime 108.1
scalar RSUExampleScenario.node[76].veinsmobility totalTime 11.9
scalar RSUExampleScenario.node[76].veinsmobility stopTime 120
scalar RSUExampleScenario.node[76].veinsmobility minSpeed 1.5867521426311
scalar RSUExampleScenario.node[76].veinsmobility maxSpeed 11.09320984829
scalar RSUExampleScenario.node[76].veinsmobility totalDistance 92.208435011451
scalar RSUExampleScenario.node[76].veinsmobility totalCO2Emission 18.814878769316
scalar RSUExampleScenario.node[77].appl generatedWSMs 1
scalar RSUExampleScenario.node[77].appl receivedWSMs 5
scalar RSUExampleScenario.node[77].appl generatedBSMs 99
scalar RSUExampleScenario.node[77].appl receivedBSMs 6385
scalar RSUExampleScenario.node[77].appl generatedWSAs 0
scalar RSUExampleScenario.node[77].appl receivedWSAs 0
scalar RSUExampleScenario.node[77].nic.phy80211p busyTime 0.074272323232319
scalar RSUExampleScenario.node[77].nic.mac1609_4 ReceivedUnicastPackets 0
scalar RSUExampleScenario.node[77].nic.mac1609_4 ReceivedBroadcasts 6390
scalar RSUExampleScenario.node[77].nic.mac1609_4 SentPackets 100
scalar RSUExampleScenario.node[77].nic.mac1609_4 SentAcknowledgements 0
scalar RSUExampleScenario.node[77].nic.mac1609_4 RetriesExceeded 0
scalar RSUExampleScenario.node[77].nic.mac1609_4 SNIRLostPackets 674
scalar RSUExampleScenario.node[77].nic.mac1609_4 RXTXLostPackets 0
scalar RSUExampleScenario.node[77].nic.mac1609_4 TotalLostPackets 674
scalar RSUExampleScenario.node[77].nic.mac1609_4 DroppedPacketsInMac 0
scalar RSUExampleScenario.node[77].nic.mac1609_4 TooLittleTime 0
scalar RSUExampleScenario.node[77].nic.mac1609_4 TimesIntoBackoff 100
scalar RSUExampleScenario.node[77].nic.mac1609_4 SlotsBackoff 157
scalar RSUExampleScenario.node[77].nic.mac1609_4 NumInternalContention 0
scalar RSUExampleScenario.node[77].nic.mac1609_4 totalBusyTime 0.745924
scalar RSUExampleScenario.node[77].nic.mac1609_4 retriesExceeded:count 0
attr source org_car2x_veins_modules_mac_sigRetriesExceeded
scalar RSUExampleScenario.node[77].nic.mac1609_4 sentAcks:count 0
attr source org_car2x_veins_modules_mac_sigSentAck
scalar RSUExampleScenario.node[77].nic.mac1609_4 sentPackets:count 100
attr source org_car2x_veins_modules_mac_sigSentPacket
scalar RSUExampleScenario.node[77].nic.mac1609_4 collisions:count 0
attr source org_car2x_veins_modules_mac_sigCollision
scalar RSUExampleScenario.node[77].nic.mac1609_4 channelBusy:timeavg 0.075345858585855
attr source org_car2x_veins_modules_mac_sigChannelBusy
scalar RSUExampleScenario.node[77].veinsmobility startTime 110.1
scalar RSUExampleScenario.node[77].veinsmobility totalTime 9.9
scalar RSUExampleScenario.node[77].veinsmobility stopTime 120
scalar RSUExampleScenario.node[77].veinsmobility minSpeed 9.4730342233885
scalar RSUExampleScenario.node[77].veinsmobility maxSpeed 11.824234681485
scalar RSUExampleScenario.node[77].veinsmobility totalDistance 109.4898813964
scalar RSUExampleScenario.node[77].veinsmobility totalCO2Emission 22.806353343142
scalar RSUExampleScenario.node[78].appl generatedWSMs 1
scalar RSUExampleScenario.node[78].appl receivedWSMs 5
scalar RSUExampleScenario.node[78].appl generatedBSMs 99
scalar RSUExampleScenario.node[78].appl receivedBSMs 6227
scalar RSUExampleScenario.node[78].appl generatedWSAs 0
scalar RSUExampleScenario.node[78].appl receivedWSAs 0
scalar RSUExampleScenario.node[78].nic.phy80211p busyTime 0.074272323232319
scalar RSUExampleScenario.node[78].nic.mac1609_4 ReceivedUnicastPackets 0
scalar RSUExampleScenario.node[78].nic.mac1609_4 ReceivedBroadcasts 6232
scalar RSUExampleScenario.node[78].nic.mac1609_4 SentPackets 100
scalar RSUExampleScenario.node[78].nic.mac1609_4 SentAcknowledgements 0
scalar RSUExampleScenario.node[78].nic.mac1609_4 RetriesExceeded 0
scalar RSUExampleScenario.node[78].nic.mac1609_4 SNIRLostPackets 832
scalar RSUExampleScenario.node[78].nic.mac1609_4 RXTXLostPackets 0
scalar RSUExampleScenario.node[78].nic.mac1609_4 TotalLostPackets 832
scalar RSUExampleScenario.node[78].nic.mac1609_4 DroppedPacketsInMac 0
scalar RSUExampleScenario.node[78].nic.mac1609_4 TooLittleTime 0
scalar RSUExampleScenario.node[78].nic.mac1609_4 TimesIntoBackoff 100
scalar RSUExampleScenario.node[78].nic.mac1609_4 SlotsBackoff 152
scalar RSUExampleScenario.node[78].nic.mac1609_4 NumInternalContention 0
scalar RSUExampleScenario.node[78].nic.mac1609_4 totalBusyTime 0.745924
scalar RSUExampleScenario.node[78].nic.mac1609_4 retriesExceeded:count 0
attr source org_car2x_veins_modules_mac_sigRetriesExceeded
scalar RSUExampleScenario.node[78].nic.mac1609_4 sentAcks:count 0
attr source org_car2x_veins_modules_mac_sigSentAck
scalar RSUExampleScenario.node[78].nic.mac1609_4 sentPackets:count 100
attr source org_car2x_veins_modules_mac_sigSentPacket
scalar RSUExampleScenario.node[78].nic.mac1609_4 collisions:count 0
attr source org_car2x_veins_modules_mac_sigCollision
scalar RSUExampleScenario.node[78].nic.mac1609_4 channelBusy:timeavg 0.075345858585855
attr source org_car2x_veins_modules_mac_sigChannelBusy
scalar RSUExampleScenario.node[78].veinsmobility startTime 110.1
scalar RSUExampleScenario.node[78].veinsmobility totalTime 9.9
scalar RSUExampleScenario.node[78].veinsmobility stopTime 120
scalar RSUExampleScenario.node[78].veinsmobility minSpeed 3.754513753277
scalar RSUExampleScenario.node[78].veinsmobility maxSpeed 8.9551379903052
scalar RSUExampleScenario.node[78].veinsmobility totalDistance 79.777769913853
scalar RSUExampleScenario.node[78].veinsmobility totalCO2Emission 15.727389419818
scalar RSUExampleScenario.node[79].appl generatedWSMs 1
scalar RSUExampleScenario.node[79].appl receivedWSMs 4
scalar RSUExampleScenario.node[79].appl generatedBSMs 79
scalar RSUExampleScenario.node[79].appl receivedBSMs 4970
scalar RSUExampleScenario.node[79].appl generatedWSAs 0
scalar RSUExampleScenario.node[79].appl receivedWSAs 0
scalar RSUExampleScenario.node[79].nic.phy80211p busyTime 0.074615696202528
scalar RSUExampleScenario.node[79].nic.mac1609_4 ReceivedUnicastPackets 0
scalar RSUExampleScenario.node[79].nic.mac1609_4 ReceivedBroadcasts 4974
scalar RSUExampleScenario.node[79].nic.mac1609_4 SentPackets 80
scalar RSUExampleScenario.node[79].nic.mac1609_4 SentAcknowledgements 0
scalar RSUExampleScenario.node[79].nic.mac1609_4 RetriesExceeded 0
scalar RSUExampleScenario.node[79].nic.mac1609_4 SNIRLostPackets 689
scalar RSUExampleScenario.node[79].nic.mac1609_4 RXTXLostPackets 0
scalar RSUExampleScenario.node[79].nic.mac1609_4 TotalLostPackets 689
scalar RSUExampleScenario.node[79].nic.mac1609_4 DroppedPacketsInMac 0
scalar RSUExampleScenario.node[79].nic.mac1609_4 TooLittleTime 0
scalar RSUExampleScenario.node[79].nic.mac1609_4 TimesIntoBackoff 80
scalar RSUExampleScenario.node[79].nic.mac1609_4 SlotsBackoff 120
scalar RSUExampleScenario.node[79].nic.mac1609_4 NumInternalContention 0
scalar RSUExampleScenario.node[79].nic.mac1609_4 totalBusyTime 0.597992
scalar RSUExampleScenario.node[79].nic.mac1609_4 retriesExceeded:count 0
attr source org_car2x_veins_modules_mac_sigRetriesExceeded
scalar RSUExampleScenario.node[79].nic.mac1609_4 sentAcks:count 0
attr source org_car2x_veins_modules_mac_sigSentAck
scalar RSUExampleScenario.node[79].nic.mac1609_4 sentPackets:count 80
attr source org_car2x_veins_modules_mac_sigSentPacket
scalar RSUExampleScenario.node[79].nic.mac1609_4 collisions:count 0
attr source org_car2x_veins_modules_mac_sigCollision
scalar RSUExampleScenario.node[79].nic.mac1609_4 channelBusy:timeavg 0.075695189873414
attr source org_car2x_veins_modules_mac_sigChannelBusy
scalar RSUExampleScenario.node[79].veinsmobility startTime 112.1
scalar RSUExampleScenario.node[79].veinsmobility totalTime 7.9
scalar RSUExampleScenario.node[79].veinsmobility stopTime 120
scalar RSUExampleScenario.node[79].veinsmobility minSpeed 10.761815217671
scalar RSUExampleScenario.node[79].veinsmobility maxSpeed 11.001372084801
scalar RSUExampleScenario.node[79].veinsmobility totalDistance 86.153619086893
scalar RSUExampleScenario.node[79].veinsmobility totalCO2Emission 16.76999667526
scalar RSUExampleScenario.node[80].appl generatedWSMs 1
scalar RSUExampleScenario.node[80].appl receivedWSMs 2
scalar RSUExampleScenario.node[80].appl generatedBSMs 59
scalar RSUExampleScenario.node[80].appl receivedBSMs 3630
scalar RSUExampleScenario.node[80].appl generatedWSAs 0
scalar RSUExampleScenario.node[80].appl receivedWSAs 0
scalar RSUExampleScenario.node[80].nic.phy80211p busyTime 0.074799999999997
scalar RSUExampleScenario.node[80].nic.mac1609_4 ReceivedUnicastPackets 0
scalar RSUExampleScenario.node[80].nic.mac1609_4 ReceivedBroadcasts 3632
scalar RSUExampleScenario.node[80].nic.mac1609_4 SentPackets 60
scalar RSUExampleScenario.node[80].nic.mac1609_4 SentAcknowledgements 0
scalar RSUExampleScenario.node[80].nic.mac1609_4 RetriesExceeded 0
scalar RSUExampleScenario.node[80].nic.mac1609_4 SNIRLostPackets 609
scalar RSUExampleScenario.node[80].nic.mac1609_4 RXTXLostPackets 0
scalar RSUExampleScenario.node[80].nic.mac1609_4 TotalLostPackets 609
scalar RSUExampleScenario.node[80].nic.mac1609_4 DroppedPacketsInMac 0
scalar RSUExampleScenario.node[80].nic.mac1609_4 TooLittleTime 0
scalar RSUExampleScenario.node[80].nic.mac1609_4 TimesIntoBackoff 60
scalar RSUExampleScenario.node[80].nic.mac1609_4 SlotsBackoff 102
scalar RSUExampleScenario.node[80].nic.mac1609_4 NumInternalContention 0
scalar RSUExampleScenario.node[80].nic.mac1609_4 totalBusyTime 0.447748
scalar RSUExampleScenario.node[80].nic.mac1609_4 retriesExceeded:count 0
attr source org_car2x_veins_modules_mac_sigRetriesExceeded
scalar RSUExampleScenario.node[80].nic.mac1609_4 sentAcks:count 0
attr source org_car2x_veins_modules_mac_sigSentAck
scalar RSUExampleScenario.node[80].nic.mac1609_4 sentPackets:count 60
attr source org_car2x_veins_modules_mac_sigSentPacket
scalar RSUExampleScenario.node[80].nic.mac1609_4 collisions:count 0
attr source org_car2x_veins_modules_mac_sigCollision
scalar RSUExampleScenario.node[80].nic.mac1609_4 channelBusy:timeavg 0.075889491525421
attr source org_car2x_veins_modules_mac_sigChannelBusy
scalar RSUExampleScenario.node[80].veinsmobility startTime 114.1
scalar RSUExampleScenario.node[80].veinsmobility totalTime 5.9
scalar RSUExampleScenario.node[80].veinsmobility stopTime 120
scalar RSUExampleScenario.node[80].veinsmobility minSpeed 7.1302461439881
scalar RSUExampleScenario.node[80].veinsmobility maxSpeed 10.516325632868
scalar RSUExampleScenario.node[80].veinsmobility totalDistance 60.209902837457
scalar RSUExampleScenario.node[80].veinsmobility totalCO2Emission 10.779239199135
scalar RSUExampleScenario.node[81].appl generatedWSMs 1
scalar RSUExampleScenario.node[81].appl receivedWSMs 2
scalar RSUExampleScenario.node[81].appl generatedBSMs 49
scalar RSUExampleScenario.node[81].appl receivedBSMs 2962
scalar RSUExampleScenario.node[81].appl generatedWSAs 0
scalar RSUExampleScenario.node[81].appl receivedWSAs 0
scalar RSUExampleScenario.node[81].nic.phy80211p busyTime 0.074868571428569
scalar RSUExampleScenario.node[81].nic.mac1609_4 ReceivedUnicastPackets 0
scalar RSUExampleScenario.node[81].nic.mac1609_4 ReceivedBroadcasts 2964
scalar RSUExampleScenario.node[81].nic.mac1609_4 SentPackets 50
scalar RSUExampleScenario.node[81].nic.mac1609_4 SentAcknowledgements 0
scalar RSUExampleScenario.node[81].nic.mac1609_4 RetriesExceeded 0
scalar RSUExampleScenario.node[81].nic.mac1609_4 SNIRLostPackets 561
scalar RSUExampleScenario.node[81].nic.mac1609_4 RXTXLostPackets 0
scalar RSUExampleScenario.node[81].nic.mac1609_4 TotalLostPackets 561
scalar RSUExampleScenario.node[81].nic.mac1609_4 DroppedPacketsInMac 0
scalar RSUExampleScenario.node[81].nic.mac1609_4 TooLittleTime 0
scalar RSUExampleScenario.node[81].nic.mac1609_4 TimesIntoBackoff 50
scalar RSUExampleScenario.node[81].nic.mac1609_4 SlotsBackoff 73
scalar RSUExampleScenario.node[81].nic.mac1609_4 NumInternalContention 0
scalar RSUExampleScenario.node[81].nic.mac1609_4 totalBusyTime 0.372234
scalar RSUExampleScenario.node[81].nic.mac1609_4 retriesExceeded:count 0
attr source org_car2x_veins_modules_mac_sigRetriesExceeded
scalar RSUExampleScenario.node[81].nic.mac1609_4 sentAcks:count 0
attr source org_car2x_veins_modules_mac_sigSentAck
scalar RSUExampleScenario.node[81].nic.mac1609_4 sentPackets:count 50
attr source org_car2x_veins_modules_mac_sigSentPacket
scalar RSUExampleScenario.node[81].nic.mac1609_4 collisions:count 0
attr source org_car2x_veins_modules_mac_sigCollision
scalar RSUExampleScenario.node[81].nic.mac1609_4 channelBusy:timeavg 0.075966122448977
attr source org_car2x_veins_modules_mac_sigChannelBusy
scalar RSUExampleScenario.node[81].veinsmobility startTime 115.1
scalar RSUExampleScenario.node[81].veinsmobility totalTime 4.9
scalar RSUExampleScenario.node[81].veinsmobility stopTime 120
scalar RSUExampleScenario.node[81].veinsmobility minSpeed 8.9482843862749
scalar RSUExampleScenario.node[81].veinsmobility maxSpeed 9.191427002132
scalar RSUExampleScenario.node[81].veinsmobility totalDistance 44.532499313694
scalar RSUExampleScenario.node[81].veinsmobility totalCO2Emission 10.958472808732
scalar RSUExampleScenario.node[82].appl generatedWSMs 0
scalar RSUExampleScenario.node[82].appl receivedWSMs 2
scalar RSUExampleScenario.node[82].appl generatedBSMs 39
scalar RSUExampleScenario.node[82].appl receivedBSMs 2369
scalar RSUExampleScenario.node[82].appl generatedWSAs 0
scalar RSUExampleScenario.node[82].appl receivedWSAs 0
scalar RSUExampleScenario.node[82].nic.phy80211p busyTime 0.074865641025639
scalar RSUExampleScenario.node[82].nic.mac1609_4 ReceivedUnicastPackets 0
scalar RSUExampleScenario.node[82].nic.mac1609_4 ReceivedBroadcasts 2371
scalar RSUExampleScenario.node[82].nic.mac1609_4 SentPackets 39
scalar RSUExampleScenario.node[82].nic.mac1609_4 SentAcknowledgements 0
scalar RSUExampleScenario.node[82].nic.mac1609_4 RetriesExceeded 0
scalar RSUExampleScenario.node[82].nic.mac1609_4 SNIRLostPackets 434
scalar RSUExampleScenario.node[82].nic.mac1609_4 RXTXLostPackets 0
scalar RSUExampleScenario.node[82].nic.mac1609_4 TotalLostPackets 434
scalar RSUExampleScenario.node[82].nic.mac1609_4 DroppedPacketsInMac 0
scalar RSUExampleScenario.node[82].nic.mac1609_4 TooLittleTime 0
scalar RSUExampleScenario.node[82].nic.mac1609_4 TimesIntoBackoff 70
scalar RSUExampleScenario.node[82].nic.mac1609_4 SlotsBackoff 100
scalar RSUExampleScenario.node[82].nic.mac1609_4 NumInternalContention 0
scalar RSUExampleScenario.node[82].nic.mac1609_4 totalBusyTime 0.296071
scalar RSUExampleScenario.node[82].nic.mac1609_4 retriesExceeded:count 0
attr source org_car2x_veins_modules_mac_sigRetriesExceeded
scalar RSUExampleScenario.node[82].nic.mac1609_4 sentAcks:count 0
attr source org_car2x_veins_modules_mac_sigSentAck
scalar RSUExampleScenario.node[82].nic.mac1609_4 sentPackets:count 39
attr source org_car2x_veins_modules_mac_sigSentPacket
scalar RSUExampleScenario.node[82].nic.mac1609_4 collisions:count 0
attr source org_car2x_veins_modules_mac_sigCollision
scalar RSUExampleScenario.node[82].nic.mac1609_4 channelBusy:timeavg 0.075915641025639
attr source org_car2x_veins_modules_mac_sigChannelBusy
scalar RSUExampleScenario.node[82].veinsmobility startTime 116.1
scalar RSUExampleScenario.node[82].veinsmobility totalTime 3.9
scalar RSUExampleScenario.node[82].veinsmobility stopTime 120
scalar RSUExampleScenario.node[82].veinsmobility minSpeed 11.138069358442
scalar RSUExampleScenario.node[82].veinsmobility maxSpeed 11.37637049347
scalar RSUExampleScenario.node[82].veinsmobility totalDistance 43.982062602673
scalar RSUExampleScenario.node[82].veinsmobility totalCO2Emission 9.5803237648632
scalar RSUExampleScenario.node[83].appl generatedWSMs 0
scalar RSUExampleScenario.node[83].appl receivedWSMs 0
scalar RSUExampleScenario.node[83].appl generatedBSMs 19
scalar RSUExampleScenario.node[83].appl receivedBSMs 1134
scalar RSUExampleScenario.node[83].appl generatedWSAs 0
scalar RSUExampleScenario.node[83].appl receivedWSAs 0
scalar RSUExampleScenario.node[83].nic.phy80211p busyTime 0.074442105263159
scalar RSUExampleScenario.node[83].nic.mac1609_4 ReceivedUnicastPackets 0
scalar RSUExampleScenario.node[83].nic.mac1609_4 ReceivedBroadcasts 1134
scalar RSUExampleScenario.node[83].nic.mac1609_4 SentPackets 19
scalar RSUExampleScenario.node[83].nic.mac1609_4 SentAcknowledgements 0
scalar RSUExampleScenario.node[83].nic.mac1609_4 RetriesExceeded 0
scalar RSUExampleScenario.node[83].nic.mac1609_4 SNIRLostPackets 226
scalar RSUExampleScenario.node[83].nic.mac1609_4 RXTXLostPackets 0
scalar RSUExampleScenario.node[83].nic.mac1609_4 TotalLostPackets 226
scalar RSUExampleScenario.node[83].nic.mac1609_4 DroppedPacketsInMac 0
scalar RSUExampleScenario.node[83].nic.mac1609_4 TooLittleTime 0
scalar RSUExampleScenario.node[83].nic.mac1609_4 TimesIntoBackoff 19
scalar RSUExampleScenario.node[83].nic.mac1609_4 SlotsBackoff 35
scalar RSUExampleScenario.node[83].nic.mac1609_4 NumInternalContention 0
scalar RSUExampleScenario.node[83].nic.mac1609_4 totalBusyTime 0.143435
scalar RSUExampleScenario.node[83].nic.mac1609_4 retriesExceeded:count 0
attr source org_car2x_veins_modules_mac_sigRetriesExceeded
scalar RSUExampleScenario.node[83].nic.mac1609_4 sentAcks:count 0
attr source org_car2x_veins_modules_mac_sigSentAck
scalar RSUExampleScenario.node[83].nic.mac1609_4 sentPackets:count 19
attr source org_car2x_veins_modules_mac_sigSentPacket
scalar RSUExampleScenario.node[83].nic.mac1609_4 collisions:count 0
attr source org_car2x_veins_modules_mac_sigCollision
scalar RSUExampleScenario.node[83].nic.mac1609_4 channelBusy:timeavg 0.075492105263159
attr source org_car2x_veins_modules_mac_sigChannelBusy
scalar RSUExampleScenario.node[83].veinsmobility startTime 118.1
scalar RSUExampleScenario.node[83].veinsmobility totalTime 1.9
scalar RSUExampleScenario.node[83].veinsmobility stopTime 120
scalar RSUExampleScenario.node[83].veinsmobility minSpeed 9.9600257935092
scalar RSUExampleScenario.node[83].veinsmobility maxSpeed 10.193157899391
scalar RSUExampleScenario.node[83].veinsmobility totalDistance 21.469290653102
scalar RSUExampleScenario.node[83].veinsmobility totalCO2Emission 4.6083567485992

