version 2
run WithBeaconing-0-20251015-15:55:00-5160
attr configname WithBeaconing
attr datetime 20251015-15:55:00
attr experiment WithBeaconing
attr inifile omnetpp.ini
attr iterationvars ""
attr iterationvarsf ""
attr measurement ""
attr network RSUExampleScenario
attr processid 5160
attr repetition 0
attr replication #0
attr resultdir results
attr runnumber 0
attr seedset 210041226
param *.node[*].appl.sendBeacons true
param *.playgroundSizeX 1700m
param *.playgroundSizeY 1700m
param *.playgroundSizeZ 50m
param *.annotations.draw true
param *.manager.updateInterval 0.1s
param *.manager.host "\"localhost\""
param *.manager.port 9999
param *.manager.autoShutdown true
param *.manager.launchConfig "xmldoc(\"simulation_junction.launchd.xml\")"
param *.connectionManager.sendDirect true
param *.connectionManager.maxInterfDist 2600m
param *.connectionManager.drawMaxIntfDist false
param *.**.nic.mac1609_4.useServiceChannel false
param *.**.nic.mac1609_4.txPower 20mW
param *.**.nic.mac1609_4.bitrate 6Mbps
param *.**.nic.phy80211p.minPowerLevel -110dBm
param *.**.nic.phy80211p.useNoiseFloor true
param *.**.nic.phy80211p.noiseFloor -98dBm
param *.**.nic.phy80211p.decider "xmldoc(\"config.xml\")"
param *.**.nic.phy80211p.analogueModels "xmldoc(\"config.xml\")"
param *.**.nic.phy80211p.usePropagationDelay true
param *.**.nic.phy80211p.antenna "xmldoc(\"antenna.xml\", \"/root/Antenna[@id='monopole']\")"
param *.node[*].nic.phy80211p.antennaOffsetY "0 m"
param *.node[*].nic.phy80211p.antennaOffsetZ "1.895 m"
param *.node[*].applType "\"TraCIDemo11p\""
param *.node[*].appl.headerLength "80 bit"
param *.node[*].appl.sendBeacons false
param *.node[*].appl.dataOnSch false
param *.node[*].appl.beaconInterval 0.1s
param **.node[*].appl.dataUserPriority 5
param **.node[*].appl.beaconUserPriority 7
param *.node[*].veinsmobility.x 0
param *.node[*].veinsmobility.y 0
param *.node[*].veinsmobility.z 0
param *.node[*].veinsmobility.setHostSpeed false

scalar RSUExampleScenario.node[0].appl generatedWSMs 1
scalar RSUExampleScenario.node[0].appl receivedWSMs 72
scalar RSUExampleScenario.node[0].appl generatedBSMs 945
scalar RSUExampleScenario.node[0].appl receivedBSMs 41815
scalar RSUExampleScenario.node[0].appl generatedWSAs 0
scalar RSUExampleScenario.node[0].appl receivedWSAs 0
scalar RSUExampleScenario.node[0].nic.phy80211p busyTime 0.050016338624349
scalar RSUExampleScenario.node[0].nic.mac1609_4 ReceivedUnicastPackets 0
scalar RSUExampleScenario.node[0].nic.mac1609_4 ReceivedBroadcasts 41887
scalar RSUExampleScenario.node[0].nic.mac1609_4 SentPackets 946
scalar RSUExampleScenario.node[0].nic.mac1609_4 SentAcknowledgements 0
scalar RSUExampleScenario.node[0].nic.mac1609_4 RetriesExceeded 0
scalar RSUExampleScenario.node[0].nic.mac1609_4 SNIRLostPackets 3451
scalar RSUExampleScenario.node[0].nic.mac1609_4 RXTXLostPackets 0
scalar RSUExampleScenario.node[0].nic.mac1609_4 TotalLostPackets 3451
scalar RSUExampleScenario.node[0].nic.mac1609_4 DroppedPacketsInMac 0
scalar RSUExampleScenario.node[0].nic.mac1609_4 TooLittleTime 0
scalar RSUExampleScenario.node[0].nic.mac1609_4 TimesIntoBackoff 947
scalar RSUExampleScenario.node[0].nic.mac1609_4 SlotsBackoff 1471
scalar RSUExampleScenario.node[0].nic.mac1609_4 NumInternalContention 0
scalar RSUExampleScenario.node[0].nic.mac1609_4 totalBusyTime 4.814434
scalar RSUExampleScenario.node[0].nic.mac1609_4 retriesExceeded:count 0
attr source org_car2x_veins_modules_mac_sigRetriesExceeded
scalar RSUExampleScenario.node[0].nic.mac1609_4 sentAcks:count 0
attr source org_car2x_veins_modules_mac_sigSentAck
scalar RSUExampleScenario.node[0].nic.mac1609_4 sentPackets:count 946
attr source org_car2x_veins_modules_mac_sigSentPacket
scalar RSUExampleScenario.node[0].nic.mac1609_4 collisions:count 0
attr source org_car2x_veins_modules_mac_sigCollision
scalar RSUExampleScenario.node[0].nic.mac1609_4 channelBusy:timeavg 0.050946391534404
attr source org_car2x_veins_modules_mac_sigChannelBusy
scalar RSUExampleScenario.node[0].veinsmobility startTime 0.1
scalar RSUExampleScenario.node[0].veinsmobility totalTime 94.4
scalar RSUExampleScenario.node[0].veinsmobility stopTime 94.6
scalar RSUExampleScenario.node[0].veinsmobility minSpeed 0
scalar RSUExampleScenario.node[0].veinsmobility maxSpeed 11.163030463739
scalar RSUExampleScenario.node[0].veinsmobility totalDistance 747.16056382961
scalar RSUExampleScenario.node[0].veinsmobility totalCO2Emission 206.1214654927
scalar RSUExampleScenario.node[1].appl generatedWSMs 1
scalar RSUExampleScenario.node[1].appl receivedWSMs 75
scalar RSUExampleScenario.node[1].appl generatedBSMs 969
scalar RSUExampleScenario.node[1].appl receivedBSMs 43775
scalar RSUExampleScenario.node[1].appl generatedWSAs 0
scalar RSUExampleScenario.node[1].appl receivedWSAs 0
scalar RSUExampleScenario.node[1].nic.phy80211p busyTime 0.051226418988665
scalar RSUExampleScenario.node[1].nic.mac1609_4 ReceivedUnicastPackets 0
scalar RSUExampleScenario.node[1].nic.mac1609_4 ReceivedBroadcasts 43850
scalar RSUExampleScenario.node[1].nic.mac1609_4 SentPackets 970
scalar RSUExampleScenario.node[1].nic.mac1609_4 SentAcknowledgements 0
scalar RSUExampleScenario.node[1].nic.mac1609_4 RetriesExceeded 0
scalar RSUExampleScenario.node[1].nic.mac1609_4 SNIRLostPackets 3766
scalar RSUExampleScenario.node[1].nic.mac1609_4 RXTXLostPackets 0
scalar RSUExampleScenario.node[1].nic.mac1609_4 TotalLostPackets 3766
scalar RSUExampleScenario.node[1].nic.mac1609_4 DroppedPacketsInMac 0
scalar RSUExampleScenario.node[1].nic.mac1609_4 TooLittleTime 0
scalar RSUExampleScenario.node[1].nic.mac1609_4 TimesIntoBackoff 970
scalar RSUExampleScenario.node[1].nic.mac1609_4 SlotsBackoff 1395
scalar RSUExampleScenario.node[1].nic.mac1609_4 NumInternalContention 0
scalar RSUExampleScenario.node[1].nic.mac1609_4 totalBusyTime 5.053002
scalar RSUExampleScenario.node[1].nic.mac1609_4 retriesExceeded:count 0
attr source org_car2x_veins_modules_mac_sigRetriesExceeded
scalar RSUExampleScenario.node[1].nic.mac1609_4 sentAcks:count 0
attr source org_car2x_veins_modules_mac_sigSentAck
scalar RSUExampleScenario.node[1].nic.mac1609_4 sentPackets:count 970
attr source org_car2x_veins_modules_mac_sigSentPacket
scalar RSUExampleScenario.node[1].nic.mac1609_4 collisions:count 0
attr source org_car2x_veins_modules_mac_sigCollision
scalar RSUExampleScenario.node[1].nic.mac1609_4 channelBusy:timeavg 0.052146563467512
attr source org_car2x_veins_modules_mac_sigChannelBusy
scalar RSUExampleScenario.node[1].veinsmobility startTime 0.1
scalar RSUExampleScenario.node[1].veinsmobility totalTime 96.8
scalar RSUExampleScenario.node[1].veinsmobility stopTime 97
scalar RSUExampleScenario.node[1].veinsmobility minSpeed 0
scalar RSUExampleScenario.node[1].veinsmobility maxSpeed 10.482764628865
scalar RSUExampleScenario.node[1].veinsmobility totalDistance 749.17047873128
scalar RSUExampleScenario.node[1].veinsmobility totalCO2Emission 205.62007023966
scalar RSUExampleScenario.node[8].appl generatedWSMs 1
scalar RSUExampleScenario.node[8].appl receivedWSMs 76
scalar RSUExampleScenario.node[8].appl generatedBSMs 942
scalar RSUExampleScenario.node[8].appl receivedBSMs 45145
scalar RSUExampleScenario.node[8].appl generatedWSAs 0
scalar RSUExampleScenario.node[8].appl receivedWSAs 0
scalar RSUExampleScenario.node[8].nic.phy80211p busyTime 0.054454437367327
scalar RSUExampleScenario.node[8].nic.mac1609_4 ReceivedUnicastPackets 0
scalar RSUExampleScenario.node[8].nic.mac1609_4 ReceivedBroadcasts 45221
scalar RSUExampleScenario.node[8].nic.mac1609_4 SentPackets 943
scalar RSUExampleScenario.node[8].nic.mac1609_4 SentAcknowledgements 0
scalar RSUExampleScenario.node[8].nic.mac1609_4 RetriesExceeded 0
scalar RSUExampleScenario.node[8].nic.mac1609_4 SNIRLostPackets 3984
scalar RSUExampleScenario.node[8].nic.mac1609_4 RXTXLostPackets 0
scalar RSUExampleScenario.node[8].nic.mac1609_4 TotalLostPackets 3984
scalar RSUExampleScenario.node[8].nic.mac1609_4 DroppedPacketsInMac 0
scalar RSUExampleScenario.node[8].nic.mac1609_4 TooLittleTime 0
scalar RSUExampleScenario.node[8].nic.mac1609_4 TimesIntoBackoff 943
scalar RSUExampleScenario.node[8].nic.mac1609_4 SlotsBackoff 1423
scalar RSUExampleScenario.node[8].nic.mac1609_4 NumInternalContention 0
scalar RSUExampleScenario.node[8].nic.mac1609_4 totalBusyTime 5.214583
scalar RSUExampleScenario.node[8].nic.mac1609_4 retriesExceeded:count 0
attr source org_car2x_veins_modules_mac_sigRetriesExceeded
scalar RSUExampleScenario.node[8].nic.mac1609_4 sentAcks:count 0
attr source org_car2x_veins_modules_mac_sigSentAck
scalar RSUExampleScenario.node[8].nic.mac1609_4 sentPackets:count 943
attr source org_car2x_veins_modules_mac_sigSentPacket
scalar RSUExampleScenario.node[8].nic.mac1609_4 collisions:count 0
attr source org_car2x_veins_modules_mac_sigCollision
scalar RSUExampleScenario.node[8].nic.mac1609_4 channelBusy:timeavg 0.055356507431023
attr source org_car2x_veins_modules_mac_sigChannelBusy
scalar RSUExampleScenario.node[8].veinsmobility startTime 4.6
scalar RSUExampleScenario.node[8].veinsmobility totalTime 94.1
scalar RSUExampleScenario.node[8].veinsmobility stopTime 98.8
scalar RSUExampleScenario.node[8].veinsmobility minSpeed 0
scalar RSUExampleScenario.node[8].veinsmobility maxSpeed 10.541118866194
scalar RSUExampleScenario.node[8].veinsmobility totalDistance 749.58730410667
scalar RSUExampleScenario.node[8].veinsmobility totalCO2Emission 213.60672803188
scalar RSUExampleScenario.node[2].appl generatedWSMs 1
scalar RSUExampleScenario.node[2].appl receivedWSMs 76
scalar RSUExampleScenario.node[2].appl generatedBSMs 988
scalar RSUExampleScenario.node[2].appl receivedBSMs 45956
scalar RSUExampleScenario.node[2].appl generatedWSAs 0
scalar RSUExampleScenario.node[2].appl receivedWSAs 0
scalar RSUExampleScenario.node[2].nic.phy80211p busyTime 0.053231417004075
scalar RSUExampleScenario.node[2].nic.mac1609_4 ReceivedUnicastPackets 0
scalar RSUExampleScenario.node[2].nic.mac1609_4 ReceivedBroadcasts 46032
scalar RSUExampleScenario.node[2].nic.mac1609_4 SentPackets 989
scalar RSUExampleScenario.node[2].nic.mac1609_4 SentAcknowledgements 0
scalar RSUExampleScenario.node[2].nic.mac1609_4 RetriesExceeded 0
scalar RSUExampleScenario.node[2].nic.mac1609_4 SNIRLostPackets 4416
scalar RSUExampleScenario.node[2].nic.mac1609_4 RXTXLostPackets 0
scalar RSUExampleScenario.node[2].nic.mac1609_4 TotalLostPackets 4416
scalar RSUExampleScenario.node[2].nic.mac1609_4 DroppedPacketsInMac 0
scalar RSUExampleScenario.node[2].nic.mac1609_4 TooLittleTime 0
scalar RSUExampleScenario.node[2].nic.mac1609_4 TimesIntoBackoff 989
scalar RSUExampleScenario.node[2].nic.mac1609_4 SlotsBackoff 1517
scalar RSUExampleScenario.node[2].nic.mac1609_4 NumInternalContention 0
scalar RSUExampleScenario.node[2].nic.mac1609_4 totalBusyTime 5.348341
scalar RSUExampleScenario.node[2].nic.mac1609_4 retriesExceeded:count 0
attr source org_car2x_veins_modules_mac_sigRetriesExceeded
scalar RSUExampleScenario.node[2].nic.mac1609_4 sentAcks:count 0
attr source org_car2x_veins_modules_mac_sigSentAck
scalar RSUExampleScenario.node[2].nic.mac1609_4 sentPackets:count 989
attr source org_car2x_veins_modules_mac_sigSentPacket
scalar RSUExampleScenario.node[2].nic.mac1609_4 collisions:count 0
attr source org_car2x_veins_modules_mac_sigCollision
scalar RSUExampleScenario.node[2].nic.mac1609_4 channelBusy:timeavg 0.054133006072903
attr source org_car2x_veins_modules_mac_sigChannelBusy
scalar RSUExampleScenario.node[2].veinsmobility startTime 1.1
scalar RSUExampleScenario.node[2].veinsmobility totalTime 98.7
scalar RSUExampleScenario.node[2].veinsmobility stopTime 99.9
scalar RSUExampleScenario.node[2].veinsmobility minSpeed 0
scalar RSUExampleScenario.node[2].veinsmobility maxSpeed 10.29920444134
scalar RSUExampleScenario.node[2].veinsmobility totalDistance 746.24660892953
scalar RSUExampleScenario.node[2].veinsmobility totalCO2Emission 212.81996056708
scalar RSUExampleScenario.node[11].appl generatedWSMs 1
scalar RSUExampleScenario.node[11].appl receivedWSMs 81
scalar RSUExampleScenario.node[11].appl generatedBSMs 959
scalar RSUExampleScenario.node[11].appl receivedBSMs 48836
scalar RSUExampleScenario.node[11].appl generatedWSAs 0
scalar RSUExampleScenario.node[11].appl receivedWSAs 0
scalar RSUExampleScenario.node[11].nic.phy80211p busyTime 0.058344692387942
scalar RSUExampleScenario.node[11].nic.mac1609_4 ReceivedUnicastPackets 0
scalar RSUExampleScenario.node[11].nic.mac1609_4 ReceivedBroadcasts 48917
scalar RSUExampleScenario.node[11].nic.mac1609_4 SentPackets 960
scalar RSUExampleScenario.node[11].nic.mac1609_4 SentAcknowledgements 0
scalar RSUExampleScenario.node[11].nic.mac1609_4 RetriesExceeded 0
scalar RSUExampleScenario.node[11].nic.mac1609_4 SNIRLostPackets 4758
scalar RSUExampleScenario.node[11].nic.mac1609_4 RXTXLostPackets 0
scalar RSUExampleScenario.node[11].nic.mac1609_4 TotalLostPackets 4758
scalar RSUExampleScenario.node[11].nic.mac1609_4 DroppedPacketsInMac 0
scalar RSUExampleScenario.node[11].nic.mac1609_4 TooLittleTime 0
scalar RSUExampleScenario.node[11].nic.mac1609_4 TimesIntoBackoff 960
scalar RSUExampleScenario.node[11].nic.mac1609_4 SlotsBackoff 1427
scalar RSUExampleScenario.node[11].nic.mac1609_4 NumInternalContention 0
scalar RSUExampleScenario.node[11].nic.mac1609_4 totalBusyTime 5.67952
scalar RSUExampleScenario.node[11].nic.mac1609_4 retriesExceeded:count 0
attr source org_car2x_veins_modules_mac_sigRetriesExceeded
scalar RSUExampleScenario.node[11].nic.mac1609_4 sentAcks:count 0
attr source org_car2x_veins_modules_mac_sigSentAck
scalar RSUExampleScenario.node[11].nic.mac1609_4 sentPackets:count 960
attr source org_car2x_veins_modules_mac_sigSentPacket
scalar RSUExampleScenario.node[11].nic.mac1609_4 collisions:count 0
attr source org_car2x_veins_modules_mac_sigCollision
scalar RSUExampleScenario.node[11].nic.mac1609_4 channelBusy:timeavg 0.059223357664273
attr source org_car2x_veins_modules_mac_sigChannelBusy
scalar RSUExampleScenario.node[11].veinsmobility startTime 7.6
scalar RSUExampleScenario.node[11].veinsmobility totalTime 95.8
scalar RSUExampleScenario.node[11].veinsmobility stopTime 103.5
scalar RSUExampleScenario.node[11].veinsmobility minSpeed 3.4286460964505e-05
scalar RSUExampleScenario.node[11].veinsmobility maxSpeed 9.8642793673456
scalar RSUExampleScenario.node[11].veinsmobility totalDistance 749.41819258164
scalar RSUExampleScenario.node[11].veinsmobility totalCO2Emission 210.93717988081
scalar RSUExampleScenario.node[15].appl generatedWSMs 1
scalar RSUExampleScenario.node[15].appl receivedWSMs 83
scalar RSUExampleScenario.node[15].appl generatedBSMs 945
scalar RSUExampleScenario.node[15].appl receivedBSMs 50057
scalar RSUExampleScenario.node[15].appl generatedWSAs 0
scalar RSUExampleScenario.node[15].appl receivedWSAs 0
scalar RSUExampleScenario.node[15].nic.phy80211p busyTime 0.060625100529144
scalar RSUExampleScenario.node[15].nic.mac1609_4 ReceivedUnicastPackets 0
scalar RSUExampleScenario.node[15].nic.mac1609_4 ReceivedBroadcasts 50140
scalar RSUExampleScenario.node[15].nic.mac1609_4 SentPackets 946
scalar RSUExampleScenario.node[15].nic.mac1609_4 SentAcknowledgements 0
scalar RSUExampleScenario.node[15].nic.mac1609_4 RetriesExceeded 0
scalar RSUExampleScenario.node[15].nic.mac1609_4 SNIRLostPackets 4818
scalar RSUExampleScenario.node[15].nic.mac1609_4 RXTXLostPackets 0
scalar RSUExampleScenario.node[15].nic.mac1609_4 TotalLostPackets 4818
scalar RSUExampleScenario.node[15].nic.mac1609_4 DroppedPacketsInMac 0
scalar RSUExampleScenario.node[15].nic.mac1609_4 TooLittleTime 0
scalar RSUExampleScenario.node[15].nic.mac1609_4 TimesIntoBackoff 947
scalar RSUExampleScenario.node[15].nic.mac1609_4 SlotsBackoff 1459
scalar RSUExampleScenario.node[15].nic.mac1609_4 NumInternalContention 0
scalar RSUExampleScenario.node[15].nic.mac1609_4 totalBusyTime 5.811034
scalar RSUExampleScenario.node[15].nic.mac1609_4 retriesExceeded:count 0
attr source org_car2x_veins_modules_mac_sigRetriesExceeded
scalar RSUExampleScenario.node[15].nic.mac1609_4 sentAcks:count 0
attr source org_car2x_veins_modules_mac_sigSentAck
scalar RSUExampleScenario.node[15].nic.mac1609_4 sentPackets:count 946
attr source org_car2x_veins_modules_mac_sigSentPacket
scalar RSUExampleScenario.node[15].nic.mac1609_4 collisions:count 0
attr source org_car2x_veins_modules_mac_sigCollision
scalar RSUExampleScenario.node[15].nic.mac1609_4 channelBusy:timeavg 0.061492423280468
attr source org_car2x_veins_modules_mac_sigChannelBusy
scalar RSUExampleScenario.node[15].veinsmobility startTime 10.6
scalar RSUExampleScenario.node[15].veinsmobility totalTime 94.4
scalar RSUExampleScenario.node[15].veinsmobility stopTime 105.1
scalar RSUExampleScenario.node[15].veinsmobility minSpeed 0.00059343343544335
scalar RSUExampleScenario.node[15].veinsmobility maxSpeed 11.066865347482
scalar RSUExampleScenario.node[15].veinsmobility totalDistance 748.61150500969
scalar RSUExampleScenario.node[15].veinsmobility totalCO2Emission 225.28856823683
scalar RSUExampleScenario.node[20].appl generatedWSMs 1
scalar RSUExampleScenario.node[20].appl receivedWSMs 88
scalar RSUExampleScenario.node[20].appl generatedBSMs 926
scalar RSUExampleScenario.node[20].appl receivedBSMs 51926
scalar RSUExampleScenario.node[20].appl generatedWSAs 0
scalar RSUExampleScenario.node[20].appl receivedWSAs 0
scalar RSUExampleScenario.node[20].nic.phy80211p busyTime 0.064515507559447
scalar RSUExampleScenario.node[20].nic.mac1609_4 ReceivedUnicastPackets 0
scalar RSUExampleScenario.node[20].nic.mac1609_4 ReceivedBroadcasts 52014
scalar RSUExampleScenario.node[20].nic.mac1609_4 SentPackets 927
scalar RSUExampleScenario.node[20].nic.mac1609_4 SentAcknowledgements 0
scalar RSUExampleScenario.node[20].nic.mac1609_4 RetriesExceeded 0
scalar RSUExampleScenario.node[20].nic.mac1609_4 SNIRLostPackets 5293
scalar RSUExampleScenario.node[20].nic.mac1609_4 RXTXLostPackets 0
scalar RSUExampleScenario.node[20].nic.mac1609_4 TotalLostPackets 5293
scalar RSUExampleScenario.node[20].nic.mac1609_4 DroppedPacketsInMac 0
scalar RSUExampleScenario.node[20].nic.mac1609_4 TooLittleTime 0
scalar RSUExampleScenario.node[20].nic.mac1609_4 TimesIntoBackoff 927
scalar RSUExampleScenario.node[20].nic.mac1609_4 SlotsBackoff 1429
scalar RSUExampleScenario.node[20].nic.mac1609_4 NumInternalContention 0
scalar RSUExampleScenario.node[20].nic.mac1609_4 totalBusyTime 6.052127
scalar RSUExampleScenario.node[20].nic.mac1609_4 retriesExceeded:count 0
attr source org_car2x_veins_modules_mac_sigRetriesExceeded
scalar RSUExampleScenario.node[20].nic.mac1609_4 sentAcks:count 0
attr source org_car2x_veins_modules_mac_sigSentAck
scalar RSUExampleScenario.node[20].nic.mac1609_4 sentPackets:count 927
attr source org_car2x_veins_modules_mac_sigSentPacket
scalar RSUExampleScenario.node[20].nic.mac1609_4 collisions:count 0
attr source org_car2x_veins_modules_mac_sigCollision
scalar RSUExampleScenario.node[20].nic.mac1609_4 channelBusy:timeavg 0.065357742980615
attr source org_car2x_veins_modules_mac_sigChannelBusy
scalar RSUExampleScenario.node[20].veinsmobility startTime 15.5
scalar RSUExampleScenario.node[20].veinsmobility totalTime 92.5
scalar RSUExampleScenario.node[20].veinsmobility stopTime 108.1
scalar RSUExampleScenario.node[20].veinsmobility minSpeed 0.42894118927829
scalar RSUExampleScenario.node[20].veinsmobility maxSpeed 9.7710446170708
scalar RSUExampleScenario.node[20].veinsmobility totalDistance 749.57434356854
scalar RSUExampleScenario.node[20].veinsmobility totalCO2Emission 211.05001874623
scalar RSUExampleScenario.node[24].appl generatedWSMs 1
scalar RSUExampleScenario.node[24].appl receivedWSMs 89
scalar RSUExampleScenario.node[24].appl generatedBSMs 903
scalar RSUExampleScenario.node[24].appl receivedBSMs 52702
scalar RSUExampleScenario.node[24].appl generatedWSAs 0
scalar RSUExampleScenario.node[24].appl receivedWSAs 0
scalar RSUExampleScenario.node[24].nic.phy80211p busyTime 0.06715960132896
scalar RSUExampleScenario.node[24].nic.mac1609_4 ReceivedUnicastPackets 0
scalar RSUExampleScenario.node[24].nic.mac1609_4 ReceivedBroadcasts 52791
scalar RSUExampleScenario.node[24].nic.mac1609_4 SentPackets 904
scalar RSUExampleScenario.node[24].nic.mac1609_4 SentAcknowledgements 0
scalar RSUExampleScenario.node[24].nic.mac1609_4 RetriesExceeded 0
scalar RSUExampleScenario.node[24].nic.mac1609_4 SNIRLostPackets 5385
scalar RSUExampleScenario.node[24].nic.mac1609_4 RXTXLostPackets 1
scalar RSUExampleScenario.node[24].nic.mac1609_4 TotalLostPackets 5386
scalar RSUExampleScenario.node[24].nic.mac1609_4 DroppedPacketsInMac 0
scalar RSUExampleScenario.node[24].nic.mac1609_4 TooLittleTime 0
scalar RSUExampleScenario.node[24].nic.mac1609_4 TimesIntoBackoff 905
scalar RSUExampleScenario.node[24].nic.mac1609_4 SlotsBackoff 1399
scalar RSUExampleScenario.node[24].nic.mac1609_4 NumInternalContention 0
scalar RSUExampleScenario.node[24].nic.mac1609_4 totalBusyTime 6.138632
scalar RSUExampleScenario.node[24].nic.mac1609_4 retriesExceeded:count 0
attr source org_car2x_veins_modules_mac_sigRetriesExceeded
scalar RSUExampleScenario.node[24].nic.mac1609_4 sentAcks:count 0
attr source org_car2x_veins_modules_mac_sigSentAck
scalar RSUExampleScenario.node[24].nic.mac1609_4 sentPackets:count 904
attr source org_car2x_veins_modules_mac_sigSentPacket
scalar RSUExampleScenario.node[24].nic.mac1609_4 collisions:count 0
attr source org_car2x_veins_modules_mac_sigCollision
scalar RSUExampleScenario.node[24].nic.mac1609_4 channelBusy:timeavg 0.067980420819548
attr source org_car2x_veins_modules_mac_sigChannelBusy
scalar RSUExampleScenario.node[24].veinsmobility startTime 19.4
scalar RSUExampleScenario.node[24].veinsmobility totalTime 90.2
scalar RSUExampleScenario.node[24].veinsmobility stopTime 109.7
scalar RSUExampleScenario.node[24].veinsmobility minSpeed 1.6484267988018
scalar RSUExampleScenario.node[24].veinsmobility maxSpeed 11.419310556396
scalar RSUExampleScenario.node[24].veinsmobility totalDistance 748.77547962205
scalar RSUExampleScenario.node[24].veinsmobility totalCO2Emission 222.34279744764
scalar RSUExampleScenario.node[4].appl generatedWSMs 1
scalar RSUExampleScenario.node[4].appl receivedWSMs 88
scalar RSUExampleScenario.node[4].appl generatedBSMs 1079
scalar RSUExampleScenario.node[4].appl receivedBSMs 54802
scalar RSUExampleScenario.node[4].appl generatedWSAs 0
scalar RSUExampleScenario.node[4].appl receivedWSAs 0
scalar RSUExampleScenario.node[4].nic.phy80211p busyTime 0.058888007414328
scalar RSUExampleScenario.node[4].nic.mac1609_4 ReceivedUnicastPackets 0
scalar RSUExampleScenario.node[4].nic.mac1609_4 ReceivedBroadcasts 54890
scalar RSUExampleScenario.node[4].nic.mac1609_4 SentPackets 1080
scalar RSUExampleScenario.node[4].nic.mac1609_4 SentAcknowledgements 0
scalar RSUExampleScenario.node[4].nic.mac1609_4 RetriesExceeded 0
scalar RSUExampleScenario.node[4].nic.mac1609_4 SNIRLostPackets 6066
scalar RSUExampleScenario.node[4].nic.mac1609_4 RXTXLostPackets 0
scalar RSUExampleScenario.node[4].nic.mac1609_4 TotalLostPackets 6066
scalar RSUExampleScenario.node[4].nic.mac1609_4 DroppedPacketsInMac 0
scalar RSUExampleScenario.node[4].nic.mac1609_4 TooLittleTime 0
scalar RSUExampleScenario.node[4].nic.mac1609_4 TimesIntoBackoff 1080
scalar RSUExampleScenario.node[4].nic.mac1609_4 SlotsBackoff 1680
scalar RSUExampleScenario.node[4].nic.mac1609_4 NumInternalContention 0
scalar RSUExampleScenario.node[4].nic.mac1609_4 totalBusyTime 6.4462
scalar RSUExampleScenario.node[4].nic.mac1609_4 retriesExceeded:count 0
attr source org_car2x_veins_modules_mac_sigRetriesExceeded
scalar RSUExampleScenario.node[4].nic.mac1609_4 sentAcks:count 0
attr source org_car2x_veins_modules_mac_sigSentAck
scalar RSUExampleScenario.node[4].nic.mac1609_4 sentPackets:count 1080
attr source org_car2x_veins_modules_mac_sigSentPacket
scalar RSUExampleScenario.node[4].nic.mac1609_4 collisions:count 0
attr source org_car2x_veins_modules_mac_sigCollision
scalar RSUExampleScenario.node[4].nic.mac1609_4 channelBusy:timeavg 0.059742354031568
attr source org_car2x_veins_modules_mac_sigChannelBusy
scalar RSUExampleScenario.node[4].veinsmobility startTime 2.1
scalar RSUExampleScenario.node[4].veinsmobility totalTime 107.8
scalar RSUExampleScenario.node[4].veinsmobility stopTime 110
scalar RSUExampleScenario.node[4].veinsmobility minSpeed 0
scalar RSUExampleScenario.node[4].veinsmobility maxSpeed 8.8306357456658
scalar RSUExampleScenario.node[4].veinsmobility totalDistance 746.55267147487
scalar RSUExampleScenario.node[4].veinsmobility totalCO2Emission 215.5259845102
scalar RSUExampleScenario.node[28].appl generatedWSMs 1
scalar RSUExampleScenario.node[28].appl receivedWSMs 94
scalar RSUExampleScenario.node[28].appl generatedBSMs 878
scalar RSUExampleScenario.node[28].appl receivedBSMs 53341
scalar RSUExampleScenario.node[28].appl generatedWSAs 0
scalar RSUExampleScenario.node[28].appl receivedWSAs 0
scalar RSUExampleScenario.node[28].nic.phy80211p busyTime 0.070079544419196
scalar RSUExampleScenario.node[28].nic.mac1609_4 ReceivedUnicastPackets 0
scalar RSUExampleScenario.node[28].nic.mac1609_4 ReceivedBroadcasts 53435
scalar RSUExampleScenario.node[28].nic.mac1609_4 SentPackets 879
scalar RSUExampleScenario.node[28].nic.mac1609_4 SentAcknowledgements 0
scalar RSUExampleScenario.node[28].nic.mac1609_4 RetriesExceeded 0
scalar RSUExampleScenario.node[28].nic.mac1609_4 SNIRLostPackets 5588
scalar RSUExampleScenario.node[28].nic.mac1609_4 RXTXLostPackets 0
scalar RSUExampleScenario.node[28].nic.mac1609_4 TotalLostPackets 5588
scalar RSUExampleScenario.node[28].nic.mac1609_4 DroppedPacketsInMac 0
scalar RSUExampleScenario.node[28].nic.mac1609_4 TooLittleTime 0
scalar RSUExampleScenario.node[28].nic.mac1609_4 TimesIntoBackoff 880
scalar RSUExampleScenario.node[28].nic.mac1609_4 SlotsBackoff 1286
scalar RSUExampleScenario.node[28].nic.mac1609_4 NumInternalContention 0
scalar RSUExampleScenario.node[28].nic.mac1609_4 totalBusyTime 6.223127
scalar RSUExampleScenario.node[28].nic.mac1609_4 retriesExceeded:count 0
attr source org_car2x_veins_modules_mac_sigRetriesExceeded
scalar RSUExampleScenario.node[28].nic.mac1609_4 sentAcks:count 0
attr source org_car2x_veins_modules_mac_sigSentAck
scalar RSUExampleScenario.node[28].nic.mac1609_4 sentPackets:count 879
attr source org_car2x_veins_modules_mac_sigSentPacket
scalar RSUExampleScenario.node[28].nic.mac1609_4 collisions:count 0
attr source org_car2x_veins_modules_mac_sigCollision
scalar RSUExampleScenario.node[28].nic.mac1609_4 channelBusy:timeavg 0.070878439635598
attr source org_car2x_veins_modules_mac_sigChannelBusy
scalar RSUExampleScenario.node[28].veinsmobility startTime 23.7
scalar RSUExampleScenario.node[28].veinsmobility totalTime 87.7
scalar RSUExampleScenario.node[28].veinsmobility stopTime 111.5
scalar RSUExampleScenario.node[28].veinsmobility minSpeed 2.3804342057196
scalar RSUExampleScenario.node[28].veinsmobility maxSpeed 10.502415429696
scalar RSUExampleScenario.node[28].veinsmobility totalDistance 749.06808996915
scalar RSUExampleScenario.node[28].veinsmobility totalCO2Emission 218.19957564377
scalar RSUExampleScenario.node[6].appl generatedWSMs 1
scalar RSUExampleScenario.node[6].appl receivedWSMs 94
scalar RSUExampleScenario.node[6].appl generatedBSMs 1085
scalar RSUExampleScenario.node[6].appl receivedBSMs 56601
scalar RSUExampleScenario.node[6].appl generatedWSAs 0
scalar RSUExampleScenario.node[6].appl receivedWSAs 0
scalar RSUExampleScenario.node[6].nic.phy80211p busyTime 0.060276202765038
scalar RSUExampleScenario.node[6].nic.mac1609_4 ReceivedUnicastPackets 0
scalar RSUExampleScenario.node[6].nic.mac1609_4 ReceivedBroadcasts 56695
scalar RSUExampleScenario.node[6].nic.mac1609_4 SentPackets 1086
scalar RSUExampleScenario.node[6].nic.mac1609_4 SentAcknowledgements 0
scalar RSUExampleScenario.node[6].nic.mac1609_4 RetriesExceeded 0
scalar RSUExampleScenario.node[6].nic.mac1609_4 SNIRLostPackets 6049
scalar RSUExampleScenario.node[6].nic.mac1609_4 RXTXLostPackets 0
scalar RSUExampleScenario.node[6].nic.mac1609_4 TotalLostPackets 6049
scalar RSUExampleScenario.node[6].nic.mac1609_4 DroppedPacketsInMac 0
scalar RSUExampleScenario.node[6].nic.mac1609_4 TooLittleTime 0
scalar RSUExampleScenario.node[6].nic.mac1609_4 TimesIntoBackoff 1087
scalar RSUExampleScenario.node[6].nic.mac1609_4 SlotsBackoff 1610
scalar RSUExampleScenario.node[6].nic.mac1609_4 NumInternalContention 0
scalar RSUExampleScenario.node[6].nic.mac1609_4 totalBusyTime 6.631742
scalar RSUExampleScenario.node[6].nic.mac1609_4 retriesExceeded:count 0
attr source org_car2x_veins_modules_mac_sigRetriesExceeded
scalar RSUExampleScenario.node[6].nic.mac1609_4 sentAcks:count 0
attr source org_car2x_veins_modules_mac_sigSentAck
scalar RSUExampleScenario.node[6].nic.mac1609_4 sentPackets:count 1086
attr source org_car2x_veins_modules_mac_sigSentPacket
scalar RSUExampleScenario.node[6].nic.mac1609_4 collisions:count 0
attr source org_car2x_veins_modules_mac_sigCollision
scalar RSUExampleScenario.node[6].nic.mac1609_4 channelBusy:timeavg 0.061122046083011
attr source org_car2x_veins_modules_mac_sigChannelBusy
scalar RSUExampleScenario.node[6].veinsmobility startTime 3.2
scalar RSUExampleScenario.node[6].veinsmobility totalTime 108.4
scalar RSUExampleScenario.node[6].veinsmobility stopTime 111.7
scalar RSUExampleScenario.node[6].veinsmobility minSpeed 0
scalar RSUExampleScenario.node[6].veinsmobility maxSpeed 10.656094004599
scalar RSUExampleScenario.node[6].veinsmobility totalDistance 746.36150671135
scalar RSUExampleScenario.node[6].veinsmobility totalCO2Emission 235.34302755478
scalar RSUExampleScenario.node[32].appl generatedWSMs 1
scalar RSUExampleScenario.node[32].appl receivedWSMs 97
scalar RSUExampleScenario.node[32].appl generatedBSMs 856
scalar RSUExampleScenario.node[32].appl receivedBSMs 54002
scalar RSUExampleScenario.node[32].appl generatedWSAs 0
scalar RSUExampleScenario.node[32].appl receivedWSAs 0
scalar RSUExampleScenario.node[32].nic.phy80211p busyTime 0.072888411215019
scalar RSUExampleScenario.node[32].nic.mac1609_4 ReceivedUnicastPackets 0
scalar RSUExampleScenario.node[32].nic.mac1609_4 ReceivedBroadcasts 54099
scalar RSUExampleScenario.node[32].nic.mac1609_4 SentPackets 857
scalar RSUExampleScenario.node[32].nic.mac1609_4 SentAcknowledgements 0
scalar RSUExampleScenario.node[32].nic.mac1609_4 RetriesExceeded 0
scalar RSUExampleScenario.node[32].nic.mac1609_4 SNIRLostPackets 5751
scalar RSUExampleScenario.node[32].nic.mac1609_4 RXTXLostPackets 0
scalar RSUExampleScenario.node[32].nic.mac1609_4 TotalLostPackets 5751
scalar RSUExampleScenario.node[32].nic.mac1609_4 DroppedPacketsInMac 0
scalar RSUExampleScenario.node[32].nic.mac1609_4 TooLittleTime 0
scalar RSUExampleScenario.node[32].nic.mac1609_4 TimesIntoBackoff 857
scalar RSUExampleScenario.node[32].nic.mac1609_4 SlotsBackoff 1239
scalar RSUExampleScenario.node[32].nic.mac1609_4 NumInternalContention 0
scalar RSUExampleScenario.node[32].nic.mac1609_4 totalBusyTime 6.305313
scalar RSUExampleScenario.node[32].nic.mac1609_4 retriesExceeded:count 0
attr source org_car2x_veins_modules_mac_sigRetriesExceeded
scalar RSUExampleScenario.node[32].nic.mac1609_4 sentAcks:count 0
attr source org_car2x_veins_modules_mac_sigSentAck
scalar RSUExampleScenario.node[32].nic.mac1609_4 sentPackets:count 857
attr source org_car2x_veins_modules_mac_sigSentPacket
scalar RSUExampleScenario.node[32].nic.mac1609_4 collisions:count 0
attr source org_car2x_veins_modules_mac_sigCollision
scalar RSUExampleScenario.node[32].nic.mac1609_4 channelBusy:timeavg 0.073660198598198
attr source org_car2x_veins_modules_mac_sigChannelBusy
scalar RSUExampleScenario.node[32].veinsmobility startTime 27.8
scalar RSUExampleScenario.node[32].veinsmobility totalTime 85.5
scalar RSUExampleScenario.node[32].veinsmobility stopTime 113.4
scalar RSUExampleScenario.node[32].veinsmobility minSpeed 2.5787825361919
scalar RSUExampleScenario.node[32].veinsmobility maxSpeed 10.078114579158
scalar RSUExampleScenario.node[32].veinsmobility totalDistance 749.09251721864
scalar RSUExampleScenario.node[32].veinsmobility totalCO2Emission 209.49891639133
scalar RSUExampleScenario.node[34].appl generatedWSMs 1
scalar RSUExampleScenario.node[34].appl receivedWSMs 101
scalar RSUExampleScenario.node[34].appl generatedBSMs 895
scalar RSUExampleScenario.node[34].appl receivedBSMs 58934
scalar RSUExampleScenario.node[34].appl generatedWSAs 0
scalar RSUExampleScenario.node[34].appl receivedWSAs 0
scalar RSUExampleScenario.node[34].nic.phy80211p busyTime 0.076593251396733
scalar RSUExampleScenario.node[34].nic.mac1609_4 ReceivedUnicastPackets 0
scalar RSUExampleScenario.node[34].nic.mac1609_4 ReceivedBroadcasts 59035
scalar RSUExampleScenario.node[34].nic.mac1609_4 SentPackets 896
scalar RSUExampleScenario.node[34].nic.mac1609_4 SentAcknowledgements 0
scalar RSUExampleScenario.node[34].nic.mac1609_4 RetriesExceeded 0
scalar RSUExampleScenario.node[34].nic.mac1609_4 SNIRLostPackets 6728
scalar RSUExampleScenario.node[34].nic.mac1609_4 RXTXLostPackets 0
scalar RSUExampleScenario.node[34].nic.mac1609_4 TotalLostPackets 6728
scalar RSUExampleScenario.node[34].nic.mac1609_4 DroppedPacketsInMac 0
scalar RSUExampleScenario.node[34].nic.mac1609_4 TooLittleTime 0
scalar RSUExampleScenario.node[34].nic.mac1609_4 TimesIntoBackoff 896
scalar RSUExampleScenario.node[34].nic.mac1609_4 SlotsBackoff 1401
scalar RSUExampleScenario.node[34].nic.mac1609_4 NumInternalContention 0
scalar RSUExampleScenario.node[34].nic.mac1609_4 totalBusyTime 6.919848
scalar RSUExampleScenario.node[34].nic.mac1609_4 retriesExceeded:count 0
attr source org_car2x_veins_modules_mac_sigRetriesExceeded
scalar RSUExampleScenario.node[34].nic.mac1609_4 sentAcks:count 0
attr source org_car2x_veins_modules_mac_sigSentAck
scalar RSUExampleScenario.node[34].nic.mac1609_4 sentPackets:count 896
attr source org_car2x_veins_modules_mac_sigSentPacket
scalar RSUExampleScenario.node[34].nic.mac1609_4 collisions:count 0
attr source org_car2x_veins_modules_mac_sigCollision
scalar RSUExampleScenario.node[34].nic.mac1609_4 channelBusy:timeavg 0.077316737430253
attr source org_car2x_veins_modules_mac_sigChannelBusy
scalar RSUExampleScenario.node[34].veinsmobility startTime 29.9
scalar RSUExampleScenario.node[34].veinsmobility totalTime 89.4
scalar RSUExampleScenario.node[34].veinsmobility stopTime 119.4
scalar RSUExampleScenario.node[34].veinsmobility minSpeed 2.376004270027
scalar RSUExampleScenario.node[34].veinsmobility maxSpeed 9.2540045919403
scalar RSUExampleScenario.node[34].veinsmobility totalDistance 749.13556737921
scalar RSUExampleScenario.node[34].veinsmobility totalCO2Emission 206.43914144701
scalar RSUExampleScenario.manager roiArea 0
scalar RSUExampleScenario.node[3].appl generatedWSMs 1
scalar RSUExampleScenario.node[3].appl receivedWSMs 121
scalar RSUExampleScenario.node[3].appl generatedBSMs 1184
scalar RSUExampleScenario.node[3].appl receivedBSMs 71294
scalar RSUExampleScenario.node[3].appl generatedWSAs 0
scalar RSUExampleScenario.node[3].appl receivedWSAs 0
scalar RSUExampleScenario.node[3].nic.phy80211p busyTime 0.063291013513594
scalar RSUExampleScenario.node[3].nic.mac1609_4 ReceivedUnicastPackets 0
scalar RSUExampleScenario.node[3].nic.mac1609_4 ReceivedBroadcasts 71415
scalar RSUExampleScenario.node[3].nic.mac1609_4 SentPackets 1185
scalar RSUExampleScenario.node[3].nic.mac1609_4 SentAcknowledgements 0
scalar RSUExampleScenario.node[3].nic.mac1609_4 RetriesExceeded 0
scalar RSUExampleScenario.node[3].nic.mac1609_4 SNIRLostPackets 488
scalar RSUExampleScenario.node[3].nic.mac1609_4 RXTXLostPackets 0
scalar RSUExampleScenario.node[3].nic.mac1609_4 TotalLostPackets 488
scalar RSUExampleScenario.node[3].nic.mac1609_4 DroppedPacketsInMac 0
scalar RSUExampleScenario.node[3].nic.mac1609_4 TooLittleTime 0
scalar RSUExampleScenario.node[3].nic.mac1609_4 TimesIntoBackoff 1185
scalar RSUExampleScenario.node[3].nic.mac1609_4 SlotsBackoff 1735
scalar RSUExampleScenario.node[3].nic.mac1609_4 NumInternalContention 0
scalar RSUExampleScenario.node[3].nic.mac1609_4 totalBusyTime 7.588545
scalar RSUExampleScenario.node[3].nic.mac1609_4 retriesExceeded:count 0
attr source org_car2x_veins_modules_mac_sigRetriesExceeded
scalar RSUExampleScenario.node[3].nic.mac1609_4 sentAcks:count 0
attr source org_car2x_veins_modules_mac_sigSentAck
scalar RSUExampleScenario.node[3].nic.mac1609_4 sentPackets:count 1185
attr source org_car2x_veins_modules_mac_sigSentPacket
scalar RSUExampleScenario.node[3].nic.mac1609_4 collisions:count 0
attr source org_car2x_veins_modules_mac_sigCollision
scalar RSUExampleScenario.node[3].nic.mac1609_4 channelBusy:timeavg 0.06409244087846
attr source org_car2x_veins_modules_mac_sigChannelBusy
scalar RSUExampleScenario.node[3].veinsmobility startTime 1.6
scalar RSUExampleScenario.node[3].veinsmobility totalTime 118.4
scalar RSUExampleScenario.node[3].veinsmobility stopTime 120
scalar RSUExampleScenario.node[3].veinsmobility minSpeed 0
scalar RSUExampleScenario.node[3].veinsmobility maxSpeed 10.152526800711
scalar RSUExampleScenario.node[3].veinsmobility totalDistance 236.39899993623
scalar RSUExampleScenario.node[3].veinsmobility totalCO2Emission 149.12763424401
scalar RSUExampleScenario.node[5].appl generatedWSMs 1
scalar RSUExampleScenario.node[5].appl receivedWSMs 121
scalar RSUExampleScenario.node[5].appl generatedBSMs 1169
scalar RSUExampleScenario.node[5].appl receivedBSMs 71306
scalar RSUExampleScenario.node[5].appl generatedWSAs 0
scalar RSUExampleScenario.node[5].appl receivedWSAs 0
scalar RSUExampleScenario.node[5].nic.phy80211p busyTime 0.064054200171168
scalar RSUExampleScenario.node[5].nic.mac1609_4 ReceivedUnicastPackets 0
scalar RSUExampleScenario.node[5].nic.mac1609_4 ReceivedBroadcasts 71427
scalar RSUExampleScenario.node[5].nic.mac1609_4 SentPackets 1170
scalar RSUExampleScenario.node[5].nic.mac1609_4 SentAcknowledgements 0
scalar RSUExampleScenario.node[5].nic.mac1609_4 RetriesExceeded 0
scalar RSUExampleScenario.node[5].nic.mac1609_4 SNIRLostPackets 421
scalar RSUExampleScenario.node[5].nic.mac1609_4 RXTXLostPackets 0
scalar RSUExampleScenario.node[5].nic.mac1609_4 TotalLostPackets 421
scalar RSUExampleScenario.node[5].nic.mac1609_4 DroppedPacketsInMac 0
scalar RSUExampleScenario.node[5].nic.mac1609_4 TooLittleTime 0
scalar RSUExampleScenario.node[5].nic.mac1609_4 TimesIntoBackoff 1170
scalar RSUExampleScenario.node[5].nic.mac1609_4 SlotsBackoff 1764
scalar RSUExampleScenario.node[5].nic.mac1609_4 NumInternalContention 0
scalar RSUExampleScenario.node[5].nic.mac1609_4 totalBusyTime 7.58125
scalar RSUExampleScenario.node[5].nic.mac1609_4 retriesExceeded:count 0
attr source org_car2x_veins_modules_mac_sigRetriesExceeded
scalar RSUExampleScenario.node[5].nic.mac1609_4 sentAcks:count 0
attr source org_car2x_veins_modules_mac_sigSentAck
scalar RSUExampleScenario.node[5].nic.mac1609_4 sentPackets:count 1170
attr source org_car2x_veins_modules_mac_sigSentPacket
scalar RSUExampleScenario.node[5].nic.mac1609_4 collisions:count 0
attr source org_car2x_veins_modules_mac_sigCollision
scalar RSUExampleScenario.node[5].nic.mac1609_4 channelBusy:timeavg 0.064852437981263
attr source org_car2x_veins_modules_mac_sigChannelBusy
scalar RSUExampleScenario.node[5].veinsmobility startTime 3.1
scalar RSUExampleScenario.node[5].veinsmobility totalTime 116.9
scalar RSUExampleScenario.node[5].veinsmobility stopTime 120
scalar RSUExampleScenario.node[5].veinsmobility minSpeed 0
scalar RSUExampleScenario.node[5].veinsmobility maxSpeed 9.4537123036234
scalar RSUExampleScenario.node[5].veinsmobility totalDistance 228.89799049429
scalar RSUExampleScenario.node[5].veinsmobility totalCO2Emission 144.06709151041
scalar RSUExampleScenario.node[7].appl generatedWSMs 1
scalar RSUExampleScenario.node[7].appl receivedWSMs 104
scalar RSUExampleScenario.node[7].appl generatedBSMs 1154
scalar RSUExampleScenario.node[7].appl receivedBSMs 65557
scalar RSUExampleScenario.node[7].appl generatedWSAs 0
scalar RSUExampleScenario.node[7].appl receivedWSAs 0
scalar RSUExampleScenario.node[7].nic.phy80211p busyTime 0.064805684575473
scalar RSUExampleScenario.node[7].nic.mac1609_4 ReceivedUnicastPackets 0
scalar RSUExampleScenario.node[7].nic.mac1609_4 ReceivedBroadcasts 65661
scalar RSUExampleScenario.node[7].nic.mac1609_4 SentPackets 1155
scalar RSUExampleScenario.node[7].nic.mac1609_4 SentAcknowledgements 0
scalar RSUExampleScenario.node[7].nic.mac1609_4 RetriesExceeded 0
scalar RSUExampleScenario.node[7].nic.mac1609_4 SNIRLostPackets 6097
scalar RSUExampleScenario.node[7].nic.mac1609_4 RXTXLostPackets 1
scalar RSUExampleScenario.node[7].nic.mac1609_4 TotalLostPackets 6098
scalar RSUExampleScenario.node[7].nic.mac1609_4 DroppedPacketsInMac 0
scalar RSUExampleScenario.node[7].nic.mac1609_4 TooLittleTime 0
scalar RSUExampleScenario.node[7].nic.mac1609_4 TimesIntoBackoff 2211
scalar RSUExampleScenario.node[7].nic.mac1609_4 SlotsBackoff 3264
scalar RSUExampleScenario.node[7].nic.mac1609_4 NumInternalContention 0
scalar RSUExampleScenario.node[7].nic.mac1609_4 totalBusyTime 7.570419
scalar RSUExampleScenario.node[7].nic.mac1609_4 retriesExceeded:count 0
attr source org_car2x_veins_modules_mac_sigRetriesExceeded
scalar RSUExampleScenario.node[7].nic.mac1609_4 sentAcks:count 0
attr source org_car2x_veins_modules_mac_sigSentAck
scalar RSUExampleScenario.node[7].nic.mac1609_4 sentPackets:count 1155
attr source org_car2x_veins_modules_mac_sigSentPacket
scalar RSUExampleScenario.node[7].nic.mac1609_4 collisions:count 0
attr source org_car2x_veins_modules_mac_sigCollision
scalar RSUExampleScenario.node[7].nic.mac1609_4 channelBusy:timeavg 0.0656015511266
attr source org_car2x_veins_modules_mac_sigChannelBusy
scalar RSUExampleScenario.node[7].veinsmobility startTime 4.6
scalar RSUExampleScenario.node[7].veinsmobility totalTime 115.4
scalar RSUExampleScenario.node[7].veinsmobility stopTime 120
scalar RSUExampleScenario.node[7].veinsmobility minSpeed 6.2435931346961e-05
scalar RSUExampleScenario.node[7].veinsmobility maxSpeed 7.6437355129147
scalar RSUExampleScenario.node[7].veinsmobility totalDistance 723.84239439794
scalar RSUExampleScenario.node[7].veinsmobility totalCO2Emission 225.53038486301
scalar RSUExampleScenario.node[9].appl generatedWSMs 1
scalar RSUExampleScenario.node[9].appl receivedWSMs 121
scalar RSUExampleScenario.node[9].appl generatedBSMs 1139
scalar RSUExampleScenario.node[9].appl receivedBSMs 71113
scalar RSUExampleScenario.node[9].appl generatedWSAs 0
scalar RSUExampleScenario.node[9].appl receivedWSAs 0
scalar RSUExampleScenario.node[9].nic.phy80211p busyTime 0.065549569798152
scalar RSUExampleScenario.node[9].nic.mac1609_4 ReceivedUnicastPackets 0
scalar RSUExampleScenario.node[9].nic.mac1609_4 ReceivedBroadcasts 71234
scalar RSUExampleScenario.node[9].nic.mac1609_4 SentPackets 1140
scalar RSUExampleScenario.node[9].nic.mac1609_4 SentAcknowledgements 0
scalar RSUExampleScenario.node[9].nic.mac1609_4 RetriesExceeded 0
scalar RSUExampleScenario.node[9].nic.mac1609_4 SNIRLostPackets 404
scalar RSUExampleScenario.node[9].nic.mac1609_4 RXTXLostPackets 1
scalar RSUExampleScenario.node[9].nic.mac1609_4 TotalLostPackets 405
scalar RSUExampleScenario.node[9].nic.mac1609_4 DroppedPacketsInMac 0
scalar RSUExampleScenario.node[9].nic.mac1609_4 TooLittleTime 0
scalar RSUExampleScenario.node[9].nic.mac1609_4 TimesIntoBackoff 1140
scalar RSUExampleScenario.node[9].nic.mac1609_4 SlotsBackoff 1681
scalar RSUExampleScenario.node[9].nic.mac1609_4 NumInternalContention 0
scalar RSUExampleScenario.node[9].nic.mac1609_4 totalBusyTime 7.556364
scalar RSUExampleScenario.node[9].nic.mac1609_4 retriesExceeded:count 0
attr source org_car2x_veins_modules_mac_sigRetriesExceeded
scalar RSUExampleScenario.node[9].nic.mac1609_4 sentAcks:count 0
attr source org_car2x_veins_modules_mac_sigSentAck
scalar RSUExampleScenario.node[9].nic.mac1609_4 sentPackets:count 1140
attr source org_car2x_veins_modules_mac_sigSentPacket
scalar RSUExampleScenario.node[9].nic.mac1609_4 collisions:count 0
attr source org_car2x_veins_modules_mac_sigCollision
scalar RSUExampleScenario.node[9].nic.mac1609_4 channelBusy:timeavg 0.066342089552323
attr source org_car2x_veins_modules_mac_sigChannelBusy
scalar RSUExampleScenario.node[9].veinsmobility startTime 6.1
scalar RSUExampleScenario.node[9].veinsmobility totalTime 113.9
scalar RSUExampleScenario.node[9].veinsmobility stopTime 120
scalar RSUExampleScenario.node[9].veinsmobility minSpeed 0
scalar RSUExampleScenario.node[9].veinsmobility maxSpeed 9.4509155681493
scalar RSUExampleScenario.node[9].veinsmobility totalDistance 221.39698075352
scalar RSUExampleScenario.node[9].veinsmobility totalCO2Emission 143.9167026454
scalar RSUExampleScenario.node[10].appl generatedWSMs 1
scalar RSUExampleScenario.node[10].appl receivedWSMs 107
scalar RSUExampleScenario.node[10].appl generatedBSMs 1138
scalar RSUExampleScenario.node[10].appl receivedBSMs 66248
scalar RSUExampleScenario.node[10].appl generatedWSAs 0
scalar RSUExampleScenario.node[10].appl receivedWSAs 0
scalar RSUExampleScenario.node[10].nic.phy80211p busyTime 0.065599859402544
scalar RSUExampleScenario.node[10].nic.mac1609_4 ReceivedUnicastPackets 0
scalar RSUExampleScenario.node[10].nic.mac1609_4 ReceivedBroadcasts 66355
scalar RSUExampleScenario.node[10].nic.mac1609_4 SentPackets 1139
scalar RSUExampleScenario.node[10].nic.mac1609_4 SentAcknowledgements 0
scalar RSUExampleScenario.node[10].nic.mac1609_4 RetriesExceeded 0
scalar RSUExampleScenario.node[10].nic.mac1609_4 SNIRLostPackets 5275
scalar RSUExampleScenario.node[10].nic.mac1609_4 RXTXLostPackets 0
scalar RSUExampleScenario.node[10].nic.mac1609_4 TotalLostPackets 5275
scalar RSUExampleScenario.node[10].nic.mac1609_4 DroppedPacketsInMac 0
scalar RSUExampleScenario.node[10].nic.mac1609_4 TooLittleTime 0
scalar RSUExampleScenario.node[10].nic.mac1609_4 TimesIntoBackoff 1633
scalar RSUExampleScenario.node[10].nic.mac1609_4 SlotsBackoff 2348
scalar RSUExampleScenario.node[10].nic.mac1609_4 NumInternalContention 0
scalar RSUExampleScenario.node[10].nic.mac1609_4 totalBusyTime 7.555323
scalar RSUExampleScenario.node[10].nic.mac1609_4 retriesExceeded:count 0
attr source org_car2x_veins_modules_mac_sigRetriesExceeded
scalar RSUExampleScenario.node[10].nic.mac1609_4 sentAcks:count 0
attr source org_car2x_veins_modules_mac_sigSentAck
scalar RSUExampleScenario.node[10].nic.mac1609_4 sentPackets:count 1139
attr source org_car2x_veins_modules_mac_sigSentPacket
scalar RSUExampleScenario.node[10].nic.mac1609_4 collisions:count 0
attr source org_car2x_veins_modules_mac_sigCollision
scalar RSUExampleScenario.node[10].nic.mac1609_4 channelBusy:timeavg 0.066391239015901
attr source org_car2x_veins_modules_mac_sigChannelBusy
scalar RSUExampleScenario.node[10].veinsmobility startTime 6.2
scalar RSUExampleScenario.node[10].veinsmobility totalTime 113.8
scalar RSUExampleScenario.node[10].veinsmobility stopTime 120
scalar RSUExampleScenario.node[10].veinsmobility minSpeed 0.00049568112995512
scalar RSUExampleScenario.node[10].veinsmobility maxSpeed 7.7791081327191
scalar RSUExampleScenario.node[10].veinsmobility totalDistance 708.41933689989
scalar RSUExampleScenario.node[10].veinsmobility totalCO2Emission 229.74656058947
scalar RSUExampleScenario.node[12].appl generatedWSMs 1
scalar RSUExampleScenario.node[12].appl receivedWSMs 111
scalar RSUExampleScenario.node[12].appl generatedBSMs 1120
scalar RSUExampleScenario.node[12].appl receivedBSMs 66780
scalar RSUExampleScenario.node[12].appl generatedWSAs 0
scalar RSUExampleScenario.node[12].appl receivedWSAs 0
scalar RSUExampleScenario.node[12].nic.phy80211p busyTime 0.06648328571437
scalar RSUExampleScenario.node[12].nic.mac1609_4 ReceivedUnicastPackets 0
scalar RSUExampleScenario.node[12].nic.mac1609_4 ReceivedBroadcasts 66891
scalar RSUExampleScenario.node[12].nic.mac1609_4 SentPackets 1121
scalar RSUExampleScenario.node[12].nic.mac1609_4 SentAcknowledgements 0
scalar RSUExampleScenario.node[12].nic.mac1609_4 RetriesExceeded 0
scalar RSUExampleScenario.node[12].nic.mac1609_4 SNIRLostPackets 4555
scalar RSUExampleScenario.node[12].nic.mac1609_4 RXTXLostPackets 0
scalar RSUExampleScenario.node[12].nic.mac1609_4 TotalLostPackets 4555
scalar RSUExampleScenario.node[12].nic.mac1609_4 DroppedPacketsInMac 0
scalar RSUExampleScenario.node[12].nic.mac1609_4 TooLittleTime 0
scalar RSUExampleScenario.node[12].nic.mac1609_4 TimesIntoBackoff 1121
scalar RSUExampleScenario.node[12].nic.mac1609_4 SlotsBackoff 1711
scalar RSUExampleScenario.node[12].nic.mac1609_4 NumInternalContention 0
scalar RSUExampleScenario.node[12].nic.mac1609_4 totalBusyTime 7.534297
scalar RSUExampleScenario.node[12].nic.mac1609_4 retriesExceeded:count 0
attr source org_car2x_veins_modules_mac_sigRetriesExceeded
scalar RSUExampleScenario.node[12].nic.mac1609_4 sentAcks:count 0
attr source org_car2x_veins_modules_mac_sigSentAck
scalar RSUExampleScenario.node[12].nic.mac1609_4 sentPackets:count 1121
attr source org_car2x_veins_modules_mac_sigSentPacket
scalar RSUExampleScenario.node[12].nic.mac1609_4 collisions:count 0
attr source org_car2x_veins_modules_mac_sigCollision
scalar RSUExampleScenario.node[12].nic.mac1609_4 channelBusy:timeavg 0.067270508928656
attr source org_car2x_veins_modules_mac_sigChannelBusy
scalar RSUExampleScenario.node[12].veinsmobility startTime 8
scalar RSUExampleScenario.node[12].veinsmobility totalTime 112
scalar RSUExampleScenario.node[12].veinsmobility stopTime 120
scalar RSUExampleScenario.node[12].veinsmobility minSpeed 0.0021224005934466
scalar RSUExampleScenario.node[12].veinsmobility maxSpeed 8.025296931777
scalar RSUExampleScenario.node[12].veinsmobility totalDistance 693.01062322114
scalar RSUExampleScenario.node[12].veinsmobility totalCO2Emission 232.38278690903
scalar RSUExampleScenario.node[13].appl generatedWSMs 1
scalar RSUExampleScenario.node[13].appl receivedWSMs 121
scalar RSUExampleScenario.node[13].appl generatedBSMs 1109
scalar RSUExampleScenario.node[13].appl receivedBSMs 70814
scalar RSUExampleScenario.node[13].appl generatedWSAs 0
scalar RSUExampleScenario.node[13].appl receivedWSAs 0
scalar RSUExampleScenario.node[13].nic.phy80211p busyTime 0.067018935978444
scalar RSUExampleScenario.node[13].nic.mac1609_4 ReceivedUnicastPackets 0
scalar RSUExampleScenario.node[13].nic.mac1609_4 ReceivedBroadcasts 70935
scalar RSUExampleScenario.node[13].nic.mac1609_4 SentPackets 1110
scalar RSUExampleScenario.node[13].nic.mac1609_4 SentAcknowledgements 0
scalar RSUExampleScenario.node[13].nic.mac1609_4 RetriesExceeded 0
scalar RSUExampleScenario.node[13].nic.mac1609_4 SNIRLostPackets 379
scalar RSUExampleScenario.node[13].nic.mac1609_4 RXTXLostPackets 0
scalar RSUExampleScenario.node[13].nic.mac1609_4 TotalLostPackets 379
scalar RSUExampleScenario.node[13].nic.mac1609_4 DroppedPacketsInMac 0
scalar RSUExampleScenario.node[13].nic.mac1609_4 TooLittleTime 0
scalar RSUExampleScenario.node[13].nic.mac1609_4 TimesIntoBackoff 1110
scalar RSUExampleScenario.node[13].nic.mac1609_4 SlotsBackoff 1619
scalar RSUExampleScenario.node[13].nic.mac1609_4 NumInternalContention 0
scalar RSUExampleScenario.node[13].nic.mac1609_4 totalBusyTime 7.519414
scalar RSUExampleScenario.node[13].nic.mac1609_4 retriesExceeded:count 0
attr source org_car2x_veins_modules_mac_sigRetriesExceeded
scalar RSUExampleScenario.node[13].nic.mac1609_4 sentAcks:count 0
attr source org_car2x_veins_modules_mac_sigSentAck
scalar RSUExampleScenario.node[13].nic.mac1609_4 sentPackets:count 1110
attr source org_car2x_veins_modules_mac_sigSentPacket
scalar RSUExampleScenario.node[13].nic.mac1609_4 collisions:count 0
attr source org_car2x_veins_modules_mac_sigCollision
scalar RSUExampleScenario.node[13].nic.mac1609_4 channelBusy:timeavg 0.067803552750311
attr source org_car2x_veins_modules_mac_sigChannelBusy
scalar RSUExampleScenario.node[13].veinsmobility startTime 9.1
scalar RSUExampleScenario.node[13].veinsmobility totalTime 110.9
scalar RSUExampleScenario.node[13].veinsmobility stopTime 120
scalar RSUExampleScenario.node[13].veinsmobility minSpeed 0
scalar RSUExampleScenario.node[13].veinsmobility maxSpeed 10.522515445241
scalar RSUExampleScenario.node[13].veinsmobility totalDistance 213.89597158529
scalar RSUExampleScenario.node[13].veinsmobility totalCO2Emission 144.20128007837
scalar RSUExampleScenario.node[14].appl generatedWSMs 1
scalar RSUExampleScenario.node[14].appl receivedWSMs 114
scalar RSUExampleScenario.node[14].appl generatedBSMs 1100
scalar RSUExampleScenario.node[14].appl receivedBSMs 67237
scalar RSUExampleScenario.node[14].appl generatedWSAs 0
scalar RSUExampleScenario.node[14].appl receivedWSAs 0
scalar RSUExampleScenario.node[14].nic.phy80211p busyTime 0.06745665454554
scalar RSUExampleScenario.node[14].nic.mac1609_4 ReceivedUnicastPackets 0
scalar RSUExampleScenario.node[14].nic.mac1609_4 ReceivedBroadcasts 67351
scalar RSUExampleScenario.node[14].nic.mac1609_4 SentPackets 1101
scalar RSUExampleScenario.node[14].nic.mac1609_4 SentAcknowledgements 0
scalar RSUExampleScenario.node[14].nic.mac1609_4 RetriesExceeded 0
scalar RSUExampleScenario.node[14].nic.mac1609_4 SNIRLostPackets 3846
scalar RSUExampleScenario.node[14].nic.mac1609_4 RXTXLostPackets 0
scalar RSUExampleScenario.node[14].nic.mac1609_4 TotalLostPackets 3846
scalar RSUExampleScenario.node[14].nic.mac1609_4 DroppedPacketsInMac 0
scalar RSUExampleScenario.node[14].nic.mac1609_4 TooLittleTime 0
scalar RSUExampleScenario.node[14].nic.mac1609_4 TimesIntoBackoff 1103
scalar RSUExampleScenario.node[14].nic.mac1609_4 SlotsBackoff 1628
scalar RSUExampleScenario.node[14].nic.mac1609_4 NumInternalContention 0
scalar RSUExampleScenario.node[14].nic.mac1609_4 totalBusyTime 7.506301
scalar RSUExampleScenario.node[14].nic.mac1609_4 retriesExceeded:count 0
attr source org_car2x_veins_modules_mac_sigRetriesExceeded
scalar RSUExampleScenario.node[14].nic.mac1609_4 sentAcks:count 0
attr source org_car2x_veins_modules_mac_sigSentAck
scalar RSUExampleScenario.node[14].nic.mac1609_4 sentPackets:count 1101
attr source org_car2x_veins_modules_mac_sigSentPacket
scalar RSUExampleScenario.node[14].nic.mac1609_4 collisions:count 0
attr source org_car2x_veins_modules_mac_sigCollision
scalar RSUExampleScenario.node[14].nic.mac1609_4 channelBusy:timeavg 0.068239100000085
attr source org_car2x_veins_modules_mac_sigChannelBusy
scalar RSUExampleScenario.node[14].veinsmobility startTime 10
scalar RSUExampleScenario.node[14].veinsmobility totalTime 110
scalar RSUExampleScenario.node[14].veinsmobility stopTime 120
scalar RSUExampleScenario.node[14].veinsmobility minSpeed 0.0066822811432052
scalar RSUExampleScenario.node[14].veinsmobility maxSpeed 8.0191038321636
scalar RSUExampleScenario.node[14].veinsmobility totalDistance 677.45317854436
scalar RSUExampleScenario.node[14].veinsmobility totalCO2Emission 221.75909861399
scalar RSUExampleScenario.node[16].appl generatedWSMs 1
scalar RSUExampleScenario.node[16].appl receivedWSMs 117
scalar RSUExampleScenario.node[16].appl generatedBSMs 1079
scalar RSUExampleScenario.node[16].appl receivedBSMs 67489
scalar RSUExampleScenario.node[16].appl generatedWSAs 0
scalar RSUExampleScenario.node[16].appl receivedWSAs 0
scalar RSUExampleScenario.node[16].nic.phy80211p busyTime 0.068470732159493
scalar RSUExampleScenario.node[16].nic.mac1609_4 ReceivedUnicastPackets 0
scalar RSUExampleScenario.node[16].nic.mac1609_4 ReceivedBroadcasts 67606
scalar RSUExampleScenario.node[16].nic.mac1609_4 SentPackets 1080
scalar RSUExampleScenario.node[16].nic.mac1609_4 SentAcknowledgements 0
scalar RSUExampleScenario.node[16].nic.mac1609_4 RetriesExceeded 0
scalar RSUExampleScenario.node[16].nic.mac1609_4 SNIRLostPackets 3281
scalar RSUExampleScenario.node[16].nic.mac1609_4 RXTXLostPackets 1
scalar RSUExampleScenario.node[16].nic.mac1609_4 TotalLostPackets 3282
scalar RSUExampleScenario.node[16].nic.mac1609_4 DroppedPacketsInMac 0
scalar RSUExampleScenario.node[16].nic.mac1609_4 TooLittleTime 0
scalar RSUExampleScenario.node[16].nic.mac1609_4 TimesIntoBackoff 1082
scalar RSUExampleScenario.node[16].nic.mac1609_4 SlotsBackoff 1643
scalar RSUExampleScenario.node[16].nic.mac1609_4 NumInternalContention 0
scalar RSUExampleScenario.node[16].nic.mac1609_4 totalBusyTime 7.47196
scalar RSUExampleScenario.node[16].nic.mac1609_4 retriesExceeded:count 0
attr source org_car2x_veins_modules_mac_sigRetriesExceeded
scalar RSUExampleScenario.node[16].nic.mac1609_4 sentAcks:count 0
attr source org_car2x_veins_modules_mac_sigSentAck
scalar RSUExampleScenario.node[16].nic.mac1609_4 sentPackets:count 1080
attr source org_car2x_veins_modules_mac_sigSentPacket
scalar RSUExampleScenario.node[16].nic.mac1609_4 collisions:count 0
attr source org_car2x_veins_modules_mac_sigCollision
scalar RSUExampleScenario.node[16].nic.mac1609_4 channelBusy:timeavg 0.069248934198418
attr source org_car2x_veins_modules_mac_sigChannelBusy
scalar RSUExampleScenario.node[16].veinsmobility startTime 12.1
scalar RSUExampleScenario.node[16].veinsmobility totalTime 107.9
scalar RSUExampleScenario.node[16].veinsmobility stopTime 120
scalar RSUExampleScenario.node[16].veinsmobility minSpeed 0.015517620970423
scalar RSUExampleScenario.node[16].veinsmobility maxSpeed 8.1498668673671
scalar RSUExampleScenario.node[16].veinsmobility totalDistance 662.0099673033
scalar RSUExampleScenario.node[16].veinsmobility totalCO2Emission 218.42806635464
scalar RSUExampleScenario.node[17].appl generatedWSMs 1
scalar RSUExampleScenario.node[17].appl receivedWSMs 121
scalar RSUExampleScenario.node[17].appl generatedBSMs 1079
scalar RSUExampleScenario.node[17].appl receivedBSMs 70394
scalar RSUExampleScenario.node[17].appl generatedWSAs 0
scalar RSUExampleScenario.node[17].appl receivedWSAs 0
scalar RSUExampleScenario.node[17].nic.phy80211p busyTime 0.068470732159493
scalar RSUExampleScenario.node[17].nic.mac1609_4 ReceivedUnicastPackets 0
scalar RSUExampleScenario.node[17].nic.mac1609_4 ReceivedBroadcasts 70515
scalar RSUExampleScenario.node[17].nic.mac1609_4 SentPackets 1080
scalar RSUExampleScenario.node[17].nic.mac1609_4 SentAcknowledgements 0
scalar RSUExampleScenario.node[17].nic.mac1609_4 RetriesExceeded 0
scalar RSUExampleScenario.node[17].nic.mac1609_4 SNIRLostPackets 372
scalar RSUExampleScenario.node[17].nic.mac1609_4 RXTXLostPackets 1
scalar RSUExampleScenario.node[17].nic.mac1609_4 TotalLostPackets 373
scalar RSUExampleScenario.node[17].nic.mac1609_4 DroppedPacketsInMac 0
scalar RSUExampleScenario.node[17].nic.mac1609_4 TooLittleTime 0
scalar RSUExampleScenario.node[17].nic.mac1609_4 TimesIntoBackoff 1080
scalar RSUExampleScenario.node[17].nic.mac1609_4 SlotsBackoff 1690
scalar RSUExampleScenario.node[17].nic.mac1609_4 NumInternalContention 0
scalar RSUExampleScenario.node[17].nic.mac1609_4 totalBusyTime 7.47196
scalar RSUExampleScenario.node[17].nic.mac1609_4 retriesExceeded:count 0
attr source org_car2x_veins_modules_mac_sigRetriesExceeded
scalar RSUExampleScenario.node[17].nic.mac1609_4 sentAcks:count 0
attr source org_car2x_veins_modules_mac_sigSentAck
scalar RSUExampleScenario.node[17].nic.mac1609_4 sentPackets:count 1080
attr source org_car2x_veins_modules_mac_sigSentPacket
scalar RSUExampleScenario.node[17].nic.mac1609_4 collisions:count 0
attr source org_car2x_veins_modules_mac_sigCollision
scalar RSUExampleScenario.node[17].nic.mac1609_4 channelBusy:timeavg 0.069248934198418
attr source org_car2x_veins_modules_mac_sigChannelBusy
scalar RSUExampleScenario.node[17].veinsmobility startTime 12.1
scalar RSUExampleScenario.node[17].veinsmobility totalTime 107.9
scalar RSUExampleScenario.node[17].veinsmobility stopTime 120
scalar RSUExampleScenario.node[17].veinsmobility minSpeed 0
scalar RSUExampleScenario.node[17].veinsmobility maxSpeed 8.8469653160206
scalar RSUExampleScenario.node[17].veinsmobility totalDistance 206.39496230148
scalar RSUExampleScenario.node[17].veinsmobility totalCO2Emission 138.21761210893
scalar RSUExampleScenario.node[18].appl generatedWSMs 1
scalar RSUExampleScenario.node[18].appl receivedWSMs 121
scalar RSUExampleScenario.node[18].appl generatedBSMs 1064
scalar RSUExampleScenario.node[18].appl receivedBSMs 70141
scalar RSUExampleScenario.node[18].appl generatedWSAs 0
scalar RSUExampleScenario.node[18].appl receivedWSAs 0
scalar RSUExampleScenario.node[18].nic.phy80211p busyTime 0.069187744360988
scalar RSUExampleScenario.node[18].nic.mac1609_4 ReceivedUnicastPackets 0
scalar RSUExampleScenario.node[18].nic.mac1609_4 ReceivedBroadcasts 70262
scalar RSUExampleScenario.node[18].nic.mac1609_4 SentPackets 1065
scalar RSUExampleScenario.node[18].nic.mac1609_4 SentAcknowledgements 0
scalar RSUExampleScenario.node[18].nic.mac1609_4 RetriesExceeded 0
scalar RSUExampleScenario.node[18].nic.mac1609_4 SNIRLostPackets 371
scalar RSUExampleScenario.node[18].nic.mac1609_4 RXTXLostPackets 0
scalar RSUExampleScenario.node[18].nic.mac1609_4 TotalLostPackets 371
scalar RSUExampleScenario.node[18].nic.mac1609_4 DroppedPacketsInMac 0
scalar RSUExampleScenario.node[18].nic.mac1609_4 TooLittleTime 0
scalar RSUExampleScenario.node[18].nic.mac1609_4 TimesIntoBackoff 1065
scalar RSUExampleScenario.node[18].nic.mac1609_4 SlotsBackoff 1661
scalar RSUExampleScenario.node[18].nic.mac1609_4 NumInternalContention 0
scalar RSUExampleScenario.node[18].nic.mac1609_4 totalBusyTime 7.443865
scalar RSUExampleScenario.node[18].nic.mac1609_4 retriesExceeded:count 0
attr source org_car2x_veins_modules_mac_sigRetriesExceeded
scalar RSUExampleScenario.node[18].nic.mac1609_4 sentAcks:count 0
attr source org_car2x_veins_modules_mac_sigSentAck
scalar RSUExampleScenario.node[18].nic.mac1609_4 sentPackets:count 1065
attr source org_car2x_veins_modules_mac_sigSentPacket
scalar RSUExampleScenario.node[18].nic.mac1609_4 collisions:count 0
attr source org_car2x_veins_modules_mac_sigCollision
scalar RSUExampleScenario.node[18].nic.mac1609_4 channelBusy:timeavg 0.069961137218132
attr source org_car2x_veins_modules_mac_sigChannelBusy
scalar RSUExampleScenario.node[18].veinsmobility startTime 13.6
scalar RSUExampleScenario.node[18].veinsmobility totalTime 106.4
scalar RSUExampleScenario.node[18].veinsmobility stopTime 120
scalar RSUExampleScenario.node[18].veinsmobility minSpeed 0
scalar RSUExampleScenario.node[18].veinsmobility maxSpeed 7.4915253909115
scalar RSUExampleScenario.node[18].veinsmobility totalDistance 198.89395309344
scalar RSUExampleScenario.node[18].veinsmobility totalCO2Emission 133.36870758793
scalar RSUExampleScenario.node[19].appl generatedWSMs 1
scalar RSUExampleScenario.node[19].appl receivedWSMs 117
scalar RSUExampleScenario.node[19].appl generatedBSMs 1057
scalar RSUExampleScenario.node[19].appl receivedBSMs 67519
scalar RSUExampleScenario.node[19].appl generatedWSAs 0
scalar RSUExampleScenario.node[19].appl receivedWSAs 0
scalar RSUExampleScenario.node[19].nic.phy80211p busyTime 0.069520983916832
scalar RSUExampleScenario.node[19].nic.mac1609_4 ReceivedUnicastPackets 0
scalar RSUExampleScenario.node[19].nic.mac1609_4 ReceivedBroadcasts 67636
scalar RSUExampleScenario.node[19].nic.mac1609_4 SentPackets 1058
scalar RSUExampleScenario.node[19].nic.mac1609_4 SentAcknowledgements 0
scalar RSUExampleScenario.node[19].nic.mac1609_4 RetriesExceeded 0
scalar RSUExampleScenario.node[19].nic.mac1609_4 SNIRLostPackets 2870
scalar RSUExampleScenario.node[19].nic.mac1609_4 RXTXLostPackets 1
scalar RSUExampleScenario.node[19].nic.mac1609_4 TotalLostPackets 2871
scalar RSUExampleScenario.node[19].nic.mac1609_4 DroppedPacketsInMac 0
scalar RSUExampleScenario.node[19].nic.mac1609_4 TooLittleTime 0
scalar RSUExampleScenario.node[19].nic.mac1609_4 TimesIntoBackoff 1059
scalar RSUExampleScenario.node[19].nic.mac1609_4 SlotsBackoff 1594
scalar RSUExampleScenario.node[19].nic.mac1609_4 NumInternalContention 0
scalar RSUExampleScenario.node[19].nic.mac1609_4 totalBusyTime 7.430026
scalar RSUExampleScenario.node[19].nic.mac1609_4 retriesExceeded:count 0
attr source org_car2x_veins_modules_mac_sigRetriesExceeded
scalar RSUExampleScenario.node[19].nic.mac1609_4 sentAcks:count 0
attr source org_car2x_veins_modules_mac_sigSentAck
scalar RSUExampleScenario.node[19].nic.mac1609_4 sentPackets:count 1058
attr source org_car2x_veins_modules_mac_sigSentPacket
scalar RSUExampleScenario.node[19].nic.mac1609_4 collisions:count 0
attr source org_car2x_veins_modules_mac_sigCollision
scalar RSUExampleScenario.node[19].nic.mac1609_4 channelBusy:timeavg 0.070293528855337
attr source org_car2x_veins_modules_mac_sigChannelBusy
scalar RSUExampleScenario.node[19].veinsmobility startTime 14.3
scalar RSUExampleScenario.node[19].veinsmobility totalTime 105.7
scalar RSUExampleScenario.node[19].veinsmobility stopTime 120
scalar RSUExampleScenario.node[19].veinsmobility minSpeed 0.031738027957668
scalar RSUExampleScenario.node[19].veinsmobility maxSpeed 8.1551790517557
scalar RSUExampleScenario.node[19].veinsmobility totalDistance 646.657065882
scalar RSUExampleScenario.node[19].veinsmobility totalCO2Emission 216.72423624012
scalar RSUExampleScenario.node[21].appl generatedWSMs 1
scalar RSUExampleScenario.node[21].appl receivedWSMs 121
scalar RSUExampleScenario.node[21].appl generatedBSMs 1038
scalar RSUExampleScenario.node[21].appl receivedBSMs 67733
scalar RSUExampleScenario.node[21].appl generatedWSAs 0
scalar RSUExampleScenario.node[21].appl receivedWSAs 0
scalar RSUExampleScenario.node[21].nic.phy80211p busyTime 0.070425818882553
scalar RSUExampleScenario.node[21].nic.mac1609_4 ReceivedUnicastPackets 0
scalar RSUExampleScenario.node[21].nic.mac1609_4 ReceivedBroadcasts 67854
scalar RSUExampleScenario.node[21].nic.mac1609_4 SentPackets 1039
scalar RSUExampleScenario.node[21].nic.mac1609_4 SentAcknowledgements 0
scalar RSUExampleScenario.node[21].nic.mac1609_4 RetriesExceeded 0
scalar RSUExampleScenario.node[21].nic.mac1609_4 SNIRLostPackets 2285
scalar RSUExampleScenario.node[21].nic.mac1609_4 RXTXLostPackets 0
scalar RSUExampleScenario.node[21].nic.mac1609_4 TotalLostPackets 2285
scalar RSUExampleScenario.node[21].nic.mac1609_4 DroppedPacketsInMac 0
scalar RSUExampleScenario.node[21].nic.mac1609_4 TooLittleTime 0
scalar RSUExampleScenario.node[21].nic.mac1609_4 TimesIntoBackoff 1083
scalar RSUExampleScenario.node[21].nic.mac1609_4 SlotsBackoff 1593
scalar RSUExampleScenario.node[21].nic.mac1609_4 NumInternalContention 0
scalar RSUExampleScenario.node[21].nic.mac1609_4 totalBusyTime 7.389759
scalar RSUExampleScenario.node[21].nic.mac1609_4 retriesExceeded:count 0
attr source org_car2x_veins_modules_mac_sigRetriesExceeded
scalar RSUExampleScenario.node[21].nic.mac1609_4 sentAcks:count 0
attr source org_car2x_veins_modules_mac_sigSentAck
scalar RSUExampleScenario.node[21].nic.mac1609_4 sentPackets:count 1039
attr source org_car2x_veins_modules_mac_sigSentPacket
scalar RSUExampleScenario.node[21].nic.mac1609_4 collisions:count 0
attr source org_car2x_veins_modules_mac_sigCollision
scalar RSUExampleScenario.node[21].nic.mac1609_4 channelBusy:timeavg 0.071192283237081
attr source org_car2x_veins_modules_mac_sigChannelBusy
scalar RSUExampleScenario.node[21].veinsmobility startTime 16.2
scalar RSUExampleScenario.node[21].veinsmobility totalTime 103.8
scalar RSUExampleScenario.node[21].veinsmobility stopTime 120
scalar RSUExampleScenario.node[21].veinsmobility minSpeed 0.056520218501023
scalar RSUExampleScenario.node[21].veinsmobility maxSpeed 7.2419705800236
scalar RSUExampleScenario.node[21].veinsmobility totalDistance 606.73640337153
scalar RSUExampleScenario.node[21].veinsmobility totalCO2Emission 197.72442438627
scalar RSUExampleScenario.node[22].appl generatedWSMs 1
scalar RSUExampleScenario.node[22].appl receivedWSMs 120
scalar RSUExampleScenario.node[22].appl generatedBSMs 1026
scalar RSUExampleScenario.node[22].appl receivedBSMs 66903
scalar RSUExampleScenario.node[22].appl generatedWSAs 0
scalar RSUExampleScenario.node[22].appl receivedWSAs 0
scalar RSUExampleScenario.node[22].nic.phy80211p busyTime 0.070994074074161
scalar RSUExampleScenario.node[22].nic.mac1609_4 ReceivedUnicastPackets 0
scalar RSUExampleScenario.node[22].nic.mac1609_4 ReceivedBroadcasts 67023
scalar RSUExampleScenario.node[22].nic.mac1609_4 SentPackets 1027
scalar RSUExampleScenario.node[22].nic.mac1609_4 SentAcknowledgements 0
scalar RSUExampleScenario.node[22].nic.mac1609_4 RetriesExceeded 0
scalar RSUExampleScenario.node[22].nic.mac1609_4 SNIRLostPackets 2864
scalar RSUExampleScenario.node[22].nic.mac1609_4 RXTXLostPackets 0
scalar RSUExampleScenario.node[22].nic.mac1609_4 TotalLostPackets 2864
scalar RSUExampleScenario.node[22].nic.mac1609_4 DroppedPacketsInMac 0
scalar RSUExampleScenario.node[22].nic.mac1609_4 TooLittleTime 0
scalar RSUExampleScenario.node[22].nic.mac1609_4 TimesIntoBackoff 1027
scalar RSUExampleScenario.node[22].nic.mac1609_4 SlotsBackoff 1546
scalar RSUExampleScenario.node[22].nic.mac1609_4 NumInternalContention 0
scalar RSUExampleScenario.node[22].nic.mac1609_4 totalBusyTime 7.362291101736
scalar RSUExampleScenario.node[22].nic.mac1609_4 retriesExceeded:count 0
attr source org_car2x_veins_modules_mac_sigRetriesExceeded
scalar RSUExampleScenario.node[22].nic.mac1609_4 sentAcks:count 0
attr source org_car2x_veins_modules_mac_sigSentAck
scalar RSUExampleScenario.node[22].nic.mac1609_4 sentPackets:count 1027
attr source org_car2x_veins_modules_mac_sigSentPacket
scalar RSUExampleScenario.node[22].nic.mac1609_4 collisions:count 0
attr source org_car2x_veins_modules_mac_sigCollision
scalar RSUExampleScenario.node[22].nic.mac1609_4 channelBusy:timeavg 0.071757223213888
attr source org_car2x_veins_modules_mac_sigChannelBusy
scalar RSUExampleScenario.node[22].veinsmobility startTime 17.4
scalar RSUExampleScenario.node[22].veinsmobility totalTime 102.6
scalar RSUExampleScenario.node[22].veinsmobility stopTime 120
scalar RSUExampleScenario.node[22].veinsmobility minSpeed 0
scalar RSUExampleScenario.node[22].veinsmobility maxSpeed 10.32828784501
scalar RSUExampleScenario.node[22].veinsmobility totalDistance 645.89536209778
scalar RSUExampleScenario.node[22].veinsmobility totalCO2Emission 222.05685199184
scalar RSUExampleScenario.node[23].appl generatedWSMs 1
scalar RSUExampleScenario.node[23].appl receivedWSMs 120
scalar RSUExampleScenario.node[23].appl generatedBSMs 1017
scalar RSUExampleScenario.node[23].appl receivedBSMs 67466
scalar RSUExampleScenario.node[23].appl generatedWSAs 0
scalar RSUExampleScenario.node[23].appl receivedWSAs 0
scalar RSUExampleScenario.node[23].nic.phy80211p busyTime 0.071419862340303
scalar RSUExampleScenario.node[23].nic.mac1609_4 ReceivedUnicastPackets 0
scalar RSUExampleScenario.node[23].nic.mac1609_4 ReceivedBroadcasts 67586
scalar RSUExampleScenario.node[23].nic.mac1609_4 SentPackets 1018
scalar RSUExampleScenario.node[23].nic.mac1609_4 SentAcknowledgements 0
scalar RSUExampleScenario.node[23].nic.mac1609_4 RetriesExceeded 0
scalar RSUExampleScenario.node[23].nic.mac1609_4 SNIRLostPackets 2103
scalar RSUExampleScenario.node[23].nic.mac1609_4 RXTXLostPackets 0
scalar RSUExampleScenario.node[23].nic.mac1609_4 TotalLostPackets 2103
scalar RSUExampleScenario.node[23].nic.mac1609_4 DroppedPacketsInMac 0
scalar RSUExampleScenario.node[23].nic.mac1609_4 TooLittleTime 0
scalar RSUExampleScenario.node[23].nic.mac1609_4 TimesIntoBackoff 1018
scalar RSUExampleScenario.node[23].nic.mac1609_4 SlotsBackoff 1530
scalar RSUExampleScenario.node[23].nic.mac1609_4 NumInternalContention 0
scalar RSUExampleScenario.node[23].nic.mac1609_4 totalBusyTime 7.340754
scalar RSUExampleScenario.node[23].nic.mac1609_4 retriesExceeded:count 0
attr source org_car2x_veins_modules_mac_sigRetriesExceeded
scalar RSUExampleScenario.node[23].nic.mac1609_4 sentAcks:count 0
attr source org_car2x_veins_modules_mac_sigSentAck
scalar RSUExampleScenario.node[23].nic.mac1609_4 sentPackets:count 1018
attr source org_car2x_veins_modules_mac_sigSentPacket
scalar RSUExampleScenario.node[23].nic.mac1609_4 collisions:count 0
attr source org_car2x_veins_modules_mac_sigCollision
scalar RSUExampleScenario.node[23].nic.mac1609_4 channelBusy:timeavg 0.072180471976489
attr source org_car2x_veins_modules_mac_sigChannelBusy
scalar RSUExampleScenario.node[23].veinsmobility startTime 18.3
scalar RSUExampleScenario.node[23].veinsmobility totalTime 101.7
scalar RSUExampleScenario.node[23].veinsmobility stopTime 120
scalar RSUExampleScenario.node[23].veinsmobility minSpeed 0.089073547104323
scalar RSUExampleScenario.node[23].veinsmobility maxSpeed 7.3827253439698
scalar RSUExampleScenario.node[23].veinsmobility totalDistance 591.79522808688
scalar RSUExampleScenario.node[23].veinsmobility totalCO2Emission 201.54631767942
scalar RSUExampleScenario.node[25].appl generatedWSMs 1
scalar RSUExampleScenario.node[25].appl receivedWSMs 121
scalar RSUExampleScenario.node[25].appl generatedBSMs 996
scalar RSUExampleScenario.node[25].appl receivedBSMs 67156
scalar RSUExampleScenario.node[25].appl generatedWSAs 0
scalar RSUExampleScenario.node[25].appl receivedWSAs 0
scalar RSUExampleScenario.node[25].nic.phy80211p busyTime 0.072408594377597
scalar RSUExampleScenario.node[25].nic.mac1609_4 ReceivedUnicastPackets 0
scalar RSUExampleScenario.node[25].nic.mac1609_4 ReceivedBroadcasts 67277
scalar RSUExampleScenario.node[25].nic.mac1609_4 SentPackets 997
scalar RSUExampleScenario.node[25].nic.mac1609_4 SentAcknowledgements 0
scalar RSUExampleScenario.node[25].nic.mac1609_4 RetriesExceeded 0
scalar RSUExampleScenario.node[25].nic.mac1609_4 SNIRLostPackets 1918
scalar RSUExampleScenario.node[25].nic.mac1609_4 RXTXLostPackets 1
scalar RSUExampleScenario.node[25].nic.mac1609_4 TotalLostPackets 1919
scalar RSUExampleScenario.node[25].nic.mac1609_4 DroppedPacketsInMac 0
scalar RSUExampleScenario.node[25].nic.mac1609_4 TooLittleTime 0
scalar RSUExampleScenario.node[25].nic.mac1609_4 TimesIntoBackoff 1893
scalar RSUExampleScenario.node[25].nic.mac1609_4 SlotsBackoff 2837
scalar RSUExampleScenario.node[25].nic.mac1609_4 NumInternalContention 0
scalar RSUExampleScenario.node[25].nic.mac1609_4 totalBusyTime 7.287277
scalar RSUExampleScenario.node[25].nic.mac1609_4 retriesExceeded:count 0
attr source org_car2x_veins_modules_mac_sigRetriesExceeded
scalar RSUExampleScenario.node[25].nic.mac1609_4 sentAcks:count 0
attr source org_car2x_veins_modules_mac_sigSentAck
scalar RSUExampleScenario.node[25].nic.mac1609_4 sentPackets:count 997
attr source org_car2x_veins_modules_mac_sigSentPacket
scalar RSUExampleScenario.node[25].nic.mac1609_4 collisions:count 0
attr source org_car2x_veins_modules_mac_sigCollision
scalar RSUExampleScenario.node[25].nic.mac1609_4 channelBusy:timeavg 0.073165431726995
attr source org_car2x_veins_modules_mac_sigChannelBusy
scalar RSUExampleScenario.node[25].veinsmobility startTime 20.4
scalar RSUExampleScenario.node[25].veinsmobility totalTime 99.6
scalar RSUExampleScenario.node[25].veinsmobility stopTime 120
scalar RSUExampleScenario.node[25].veinsmobility minSpeed 0.1392794181716
scalar RSUExampleScenario.node[25].veinsmobility maxSpeed 7.4612406300208
scalar RSUExampleScenario.node[25].veinsmobility totalDistance 576.76302005483
scalar RSUExampleScenario.node[25].veinsmobility totalCO2Emission 196.53684649598
scalar RSUExampleScenario.node[26].appl generatedWSMs 1
scalar RSUExampleScenario.node[26].appl receivedWSMs 121
scalar RSUExampleScenario.node[26].appl generatedBSMs 985
scalar RSUExampleScenario.node[26].appl receivedBSMs 68426
scalar RSUExampleScenario.node[26].appl generatedWSAs 0
scalar RSUExampleScenario.node[26].appl receivedWSAs 0
scalar RSUExampleScenario.node[26].nic.phy80211p busyTime 0.072929218274199
scalar RSUExampleScenario.node[26].nic.mac1609_4 ReceivedUnicastPackets 0
scalar RSUExampleScenario.node[26].nic.mac1609_4 ReceivedBroadcasts 68547
scalar RSUExampleScenario.node[26].nic.mac1609_4 SentPackets 986
scalar RSUExampleScenario.node[26].nic.mac1609_4 SentAcknowledgements 0
scalar RSUExampleScenario.node[26].nic.mac1609_4 RetriesExceeded 0
scalar RSUExampleScenario.node[26].nic.mac1609_4 SNIRLostPackets 374
scalar RSUExampleScenario.node[26].nic.mac1609_4 RXTXLostPackets 0
scalar RSUExampleScenario.node[26].nic.mac1609_4 TotalLostPackets 374
scalar RSUExampleScenario.node[26].nic.mac1609_4 DroppedPacketsInMac 0
scalar RSUExampleScenario.node[26].nic.mac1609_4 TooLittleTime 0
scalar RSUExampleScenario.node[26].nic.mac1609_4 TimesIntoBackoff 986
scalar RSUExampleScenario.node[26].nic.mac1609_4 SlotsBackoff 1469
scalar RSUExampleScenario.node[26].nic.mac1609_4 NumInternalContention 0
scalar RSUExampleScenario.node[26].nic.mac1609_4 totalBusyTime 7.257522
scalar RSUExampleScenario.node[26].nic.mac1609_4 retriesExceeded:count 0
attr source org_car2x_veins_modules_mac_sigRetriesExceeded
scalar RSUExampleScenario.node[26].nic.mac1609_4 sentAcks:count 0
attr source org_car2x_veins_modules_mac_sigSentAck
scalar RSUExampleScenario.node[26].nic.mac1609_4 sentPackets:count 986
attr source org_car2x_veins_modules_mac_sigSentPacket
scalar RSUExampleScenario.node[26].nic.mac1609_4 collisions:count 0
attr source org_car2x_veins_modules_mac_sigCollision
scalar RSUExampleScenario.node[26].nic.mac1609_4 channelBusy:timeavg 0.073680426396027
attr source org_car2x_veins_modules_mac_sigChannelBusy
scalar RSUExampleScenario.node[26].veinsmobility startTime 21.5
scalar RSUExampleScenario.node[26].veinsmobility totalTime 98.5
scalar RSUExampleScenario.node[26].veinsmobility stopTime 120
scalar RSUExampleScenario.node[26].veinsmobility minSpeed 0
scalar RSUExampleScenario.node[26].veinsmobility maxSpeed 9.8455494523987
scalar RSUExampleScenario.node[26].veinsmobility totalDistance 191.39294394084
scalar RSUExampleScenario.node[26].veinsmobility totalCO2Emission 132.05852969596
scalar RSUExampleScenario.node[27].appl generatedWSMs 1
scalar RSUExampleScenario.node[27].appl receivedWSMs 121
scalar RSUExampleScenario.node[27].appl generatedBSMs 976
scalar RSUExampleScenario.node[27].appl receivedBSMs 66793
scalar RSUExampleScenario.node[27].appl generatedWSAs 0
scalar RSUExampleScenario.node[27].appl receivedWSAs 0
scalar RSUExampleScenario.node[27].nic.phy80211p busyTime 0.073352377049268
scalar RSUExampleScenario.node[27].nic.mac1609_4 ReceivedUnicastPackets 0
scalar RSUExampleScenario.node[27].nic.mac1609_4 ReceivedBroadcasts 66914
scalar RSUExampleScenario.node[27].nic.mac1609_4 SentPackets 977
scalar RSUExampleScenario.node[27].nic.mac1609_4 SentAcknowledgements 0
scalar RSUExampleScenario.node[27].nic.mac1609_4 RetriesExceeded 0
scalar RSUExampleScenario.node[27].nic.mac1609_4 SNIRLostPackets 1773
scalar RSUExampleScenario.node[27].nic.mac1609_4 RXTXLostPackets 0
scalar RSUExampleScenario.node[27].nic.mac1609_4 TotalLostPackets 1773
scalar RSUExampleScenario.node[27].nic.mac1609_4 DroppedPacketsInMac 0
scalar RSUExampleScenario.node[27].nic.mac1609_4 TooLittleTime 0
scalar RSUExampleScenario.node[27].nic.mac1609_4 TimesIntoBackoff 977
scalar RSUExampleScenario.node[27].nic.mac1609_4 SlotsBackoff 1440
scalar RSUExampleScenario.node[27].nic.mac1609_4 NumInternalContention 0
scalar RSUExampleScenario.node[27].nic.mac1609_4 totalBusyTime 7.232369099968
scalar RSUExampleScenario.node[27].nic.mac1609_4 retriesExceeded:count 0
attr source org_car2x_veins_modules_mac_sigRetriesExceeded
scalar RSUExampleScenario.node[27].nic.mac1609_4 sentAcks:count 0
attr source org_car2x_veins_modules_mac_sigSentAck
scalar RSUExampleScenario.node[27].nic.mac1609_4 sentPackets:count 977
attr source org_car2x_veins_modules_mac_sigSentPacket
scalar RSUExampleScenario.node[27].nic.mac1609_4 collisions:count 0
attr source org_car2x_veins_modules_mac_sigCollision
scalar RSUExampleScenario.node[27].nic.mac1609_4 channelBusy:timeavg 0.074102142417793
attr source org_car2x_veins_modules_mac_sigChannelBusy
scalar RSUExampleScenario.node[27].veinsmobility startTime 22.4
scalar RSUExampleScenario.node[27].veinsmobility totalTime 97.6
scalar RSUExampleScenario.node[27].veinsmobility stopTime 120
scalar RSUExampleScenario.node[27].veinsmobility minSpeed 0.19206234770147
scalar RSUExampleScenario.node[27].veinsmobility maxSpeed 7.5080838053476
scalar RSUExampleScenario.node[27].veinsmobility totalDistance 561.70389698397
[...]
scalar RSUExampleScenario.node[119].nic.phy80211p busyTime 0.11446079999999
scalar RSUExampleScenario.node[119].nic.mac1609_4 ReceivedUnicastPackets 0
scalar RSUExampleScenario.node[119].nic.mac1609_4 ReceivedBroadcasts 7642
scalar RSUExampleScenario.node[119].nic.mac1609_4 SentPackets 76
scalar RSUExampleScenario.node[119].nic.mac1609_4 SentAcknowledgements 0
scalar RSUExampleScenario.node[119].nic.mac1609_4 RetriesExceeded 0
scalar RSUExampleScenario.node[119].nic.mac1609_4 SNIRLostPackets 605
scalar RSUExampleScenario.node[119].nic.mac1609_4 RXTXLostPackets 0
scalar RSUExampleScenario.node[119].nic.mac1609_4 TotalLostPackets 605
scalar RSUExampleScenario.node[119].nic.mac1609_4 DroppedPacketsInMac 0
scalar RSUExampleScenario.node[119].nic.mac1609_4 TooLittleTime 0
scalar RSUExampleScenario.node[119].nic.mac1609_4 TimesIntoBackoff 76
scalar RSUExampleScenario.node[119].nic.mac1609_4 SlotsBackoff 115
scalar RSUExampleScenario.node[119].nic.mac1609_4 NumInternalContention 0
scalar RSUExampleScenario.node[119].nic.mac1609_4 totalBusyTime 0.860116
scalar RSUExampleScenario.node[119].nic.mac1609_4 retriesExceeded:count 0
attr source org_car2x_veins_modules_mac_sigRetriesExceeded
scalar RSUExampleScenario.node[119].nic.mac1609_4 sentAcks:count 0
attr source org_car2x_veins_modules_mac_sigSentAck
scalar RSUExampleScenario.node[119].nic.mac1609_4 sentPackets:count 76
attr source org_car2x_veins_modules_mac_sigSentPacket
scalar RSUExampleScenario.node[119].nic.mac1609_4 collisions:count 0
attr source org_car2x_veins_modules_mac_sigCollision
scalar RSUExampleScenario.node[119].nic.mac1609_4 channelBusy:timeavg 0.11468213333333
attr source org_car2x_veins_modules_mac_sigChannelBusy
scalar RSUExampleScenario.node[119].veinsmobility startTime 112.5
scalar RSUExampleScenario.node[119].veinsmobility totalTime 7.5
scalar RSUExampleScenario.node[119].veinsmobility stopTime 120
scalar RSUExampleScenario.node[119].veinsmobility minSpeed 1.7457633447039
scalar RSUExampleScenario.node[119].veinsmobility maxSpeed 3.090412945176
scalar RSUExampleScenario.node[119].veinsmobility totalDistance 19.257762615279
scalar RSUExampleScenario.node[119].veinsmobility totalCO2Emission 10.245128482571
scalar RSUExampleScenario.node[120].appl generatedWSMs 1
scalar RSUExampleScenario.node[120].appl receivedWSMs 6
scalar RSUExampleScenario.node[120].appl generatedBSMs 70
scalar RSUExampleScenario.node[120].appl receivedBSMs 7096
scalar RSUExampleScenario.node[120].appl generatedWSAs 0
scalar RSUExampleScenario.node[120].appl receivedWSAs 0
scalar RSUExampleScenario.node[120].nic.phy80211p busyTime 0.11461371428571
scalar RSUExampleScenario.node[120].nic.mac1609_4 ReceivedUnicastPackets 0
scalar RSUExampleScenario.node[120].nic.mac1609_4 ReceivedBroadcasts 7102
scalar RSUExampleScenario.node[120].nic.mac1609_4 SentPackets 71
scalar RSUExampleScenario.node[120].nic.mac1609_4 SentAcknowledgements 0
scalar RSUExampleScenario.node[120].nic.mac1609_4 RetriesExceeded 0
scalar RSUExampleScenario.node[120].nic.mac1609_4 SNIRLostPackets 605
scalar RSUExampleScenario.node[120].nic.mac1609_4 RXTXLostPackets 0
scalar RSUExampleScenario.node[120].nic.mac1609_4 TotalLostPackets 605
scalar RSUExampleScenario.node[120].nic.mac1609_4 DroppedPacketsInMac 0
scalar RSUExampleScenario.node[120].nic.mac1609_4 TooLittleTime 0
scalar RSUExampleScenario.node[120].nic.mac1609_4 TimesIntoBackoff 141
scalar RSUExampleScenario.node[120].nic.mac1609_4 SlotsBackoff 209
scalar RSUExampleScenario.node[120].nic.mac1609_4 NumInternalContention 0
scalar RSUExampleScenario.node[120].nic.mac1609_4 totalBusyTime 0.803951
scalar RSUExampleScenario.node[120].nic.mac1609_4 retriesExceeded:count 0
attr source org_car2x_veins_modules_mac_sigRetriesExceeded
scalar RSUExampleScenario.node[120].nic.mac1609_4 sentAcks:count 0
attr source org_car2x_veins_modules_mac_sigSentAck
scalar RSUExampleScenario.node[120].nic.mac1609_4 sentPackets:count 71
attr source org_car2x_veins_modules_mac_sigSentPacket
scalar RSUExampleScenario.node[120].nic.mac1609_4 collisions:count 0
attr source org_car2x_veins_modules_mac_sigCollision
scalar RSUExampleScenario.node[120].nic.mac1609_4 channelBusy:timeavg 0.11485014285714
attr source org_car2x_veins_modules_mac_sigChannelBusy
scalar RSUExampleScenario.node[120].veinsmobility startTime 113
scalar RSUExampleScenario.node[120].veinsmobility totalTime 7
scalar RSUExampleScenario.node[120].veinsmobility stopTime 120
scalar RSUExampleScenario.node[120].veinsmobility minSpeed 1.1622056992431
scalar RSUExampleScenario.node[120].veinsmobility maxSpeed 2.978600371693
scalar RSUExampleScenario.node[120].veinsmobility totalDistance 18.071196017451
scalar RSUExampleScenario.node[120].veinsmobility totalCO2Emission 10.12659810827
scalar RSUExampleScenario.node[121].appl generatedWSMs 1
scalar RSUExampleScenario.node[121].appl receivedWSMs 5
scalar RSUExampleScenario.node[121].appl generatedBSMs 45
scalar RSUExampleScenario.node[121].appl receivedBSMs 4567
scalar RSUExampleScenario.node[121].appl generatedWSAs 0
scalar RSUExampleScenario.node[121].appl receivedWSAs 0
scalar RSUExampleScenario.node[121].nic.phy80211p busyTime 0.11574399999999
scalar RSUExampleScenario.node[121].nic.mac1609_4 ReceivedUnicastPackets 0
scalar RSUExampleScenario.node[121].nic.mac1609_4 ReceivedBroadcasts 4572
scalar RSUExampleScenario.node[121].nic.mac1609_4 SentPackets 46
scalar RSUExampleScenario.node[121].nic.mac1609_4 SentAcknowledgements 0
scalar RSUExampleScenario.node[121].nic.mac1609_4 RetriesExceeded 0
scalar RSUExampleScenario.node[121].nic.mac1609_4 SNIRLostPackets 430
scalar RSUExampleScenario.node[121].nic.mac1609_4 RXTXLostPackets 0
scalar RSUExampleScenario.node[121].nic.mac1609_4 TotalLostPackets 430
scalar RSUExampleScenario.node[121].nic.mac1609_4 DroppedPacketsInMac 0
scalar RSUExampleScenario.node[121].nic.mac1609_4 TooLittleTime 0
scalar RSUExampleScenario.node[121].nic.mac1609_4 TimesIntoBackoff 46
scalar RSUExampleScenario.node[121].nic.mac1609_4 SlotsBackoff 68
scalar RSUExampleScenario.node[121].nic.mac1609_4 NumInternalContention 0
scalar RSUExampleScenario.node[121].nic.mac1609_4 totalBusyTime 0.521958
scalar RSUExampleScenario.node[121].nic.mac1609_4 retriesExceeded:count 0
attr source org_car2x_veins_modules_mac_sigRetriesExceeded
scalar RSUExampleScenario.node[121].nic.mac1609_4 sentAcks:count 0
attr source org_car2x_veins_modules_mac_sigSentAck
scalar RSUExampleScenario.node[121].nic.mac1609_4 sentPackets:count 46
attr source org_car2x_veins_modules_mac_sigSentPacket
scalar RSUExampleScenario.node[121].nic.mac1609_4 collisions:count 0
attr source org_car2x_veins_modules_mac_sigCollision
scalar RSUExampleScenario.node[121].nic.mac1609_4 channelBusy:timeavg 0.11599066666666
attr source org_car2x_veins_modules_mac_sigChannelBusy
scalar RSUExampleScenario.node[121].veinsmobility startTime 115.5
scalar RSUExampleScenario.node[121].veinsmobility totalTime 4.5
scalar RSUExampleScenario.node[121].veinsmobility stopTime 120
scalar RSUExampleScenario.node[121].veinsmobility minSpeed 1.0922115585454
scalar RSUExampleScenario.node[121].veinsmobility maxSpeed 6.645557490099
scalar RSUExampleScenario.node[121].veinsmobility totalDistance 20.669099053875
scalar RSUExampleScenario.node[121].veinsmobility totalCO2Emission 11.057688259012
scalar RSUExampleScenario.node[122].appl generatedWSMs 1
scalar RSUExampleScenario.node[122].appl receivedWSMs 5
scalar RSUExampleScenario.node[122].appl generatedBSMs 44
scalar RSUExampleScenario.node[122].appl receivedBSMs 4459
scalar RSUExampleScenario.node[122].appl generatedWSAs 0
scalar RSUExampleScenario.node[122].appl receivedWSAs 0
scalar RSUExampleScenario.node[122].nic.phy80211p busyTime 0.11579818181818
scalar RSUExampleScenario.node[122].nic.mac1609_4 ReceivedUnicastPackets 0
scalar RSUExampleScenario.node[122].nic.mac1609_4 ReceivedBroadcasts 4464
scalar RSUExampleScenario.node[122].nic.mac1609_4 SentPackets 45
scalar RSUExampleScenario.node[122].nic.mac1609_4 SentAcknowledgements 0
scalar RSUExampleScenario.node[122].nic.mac1609_4 RetriesExceeded 0
scalar RSUExampleScenario.node[122].nic.mac1609_4 SNIRLostPackets 429
scalar RSUExampleScenario.node[122].nic.mac1609_4 RXTXLostPackets 0
scalar RSUExampleScenario.node[122].nic.mac1609_4 TotalLostPackets 429
scalar RSUExampleScenario.node[122].nic.mac1609_4 DroppedPacketsInMac 0
scalar RSUExampleScenario.node[122].nic.mac1609_4 TooLittleTime 0
scalar RSUExampleScenario.node[122].nic.mac1609_4 TimesIntoBackoff 89
scalar RSUExampleScenario.node[122].nic.mac1609_4 SlotsBackoff 149
scalar RSUExampleScenario.node[122].nic.mac1609_4 NumInternalContention 0
scalar RSUExampleScenario.node[122].nic.mac1609_4 totalBusyTime 0.510621
scalar RSUExampleScenario.node[122].nic.mac1609_4 retriesExceeded:count 0
attr source org_car2x_veins_modules_mac_sigRetriesExceeded
scalar RSUExampleScenario.node[122].nic.mac1609_4 sentAcks:count 0
attr source org_car2x_veins_modules_mac_sigSentAck
scalar RSUExampleScenario.node[122].nic.mac1609_4 sentPackets:count 45
attr source org_car2x_veins_modules_mac_sigSentPacket
scalar RSUExampleScenario.node[122].nic.mac1609_4 collisions:count 0
attr source org_car2x_veins_modules_mac_sigCollision
scalar RSUExampleScenario.node[122].nic.mac1609_4 channelBusy:timeavg 0.11605022727272
attr source org_car2x_veins_modules_mac_sigChannelBusy
scalar RSUExampleScenario.node[122].veinsmobility startTime 115.6
scalar RSUExampleScenario.node[122].veinsmobility totalTime 4.4
scalar RSUExampleScenario.node[122].veinsmobility stopTime 120
scalar RSUExampleScenario.node[122].veinsmobility minSpeed 1.3351638706044
scalar RSUExampleScenario.node[122].veinsmobility maxSpeed 2.4017745105429
scalar RSUExampleScenario.node[122].veinsmobility totalDistance 9.4109290404534
scalar RSUExampleScenario.node[122].veinsmobility totalCO2Emission 5.9005804359457
scalar RSUExampleScenario.node[123].appl generatedWSMs 1
scalar RSUExampleScenario.node[123].appl receivedWSMs 4
scalar RSUExampleScenario.node[123].appl generatedBSMs 38
scalar RSUExampleScenario.node[123].appl receivedBSMs 3833
scalar RSUExampleScenario.node[123].appl generatedWSAs 0
scalar RSUExampleScenario.node[123].appl receivedWSAs 0
scalar RSUExampleScenario.node[123].nic.phy80211p busyTime 0.11595789473684
scalar RSUExampleScenario.node[123].nic.mac1609_4 ReceivedUnicastPackets 0
scalar RSUExampleScenario.node[123].nic.mac1609_4 ReceivedBroadcasts 3837
scalar RSUExampleScenario.node[123].nic.mac1609_4 SentPackets 39
scalar RSUExampleScenario.node[123].nic.mac1609_4 SentAcknowledgements 0
scalar RSUExampleScenario.node[123].nic.mac1609_4 RetriesExceeded 0
scalar RSUExampleScenario.node[123].nic.mac1609_4 SNIRLostPackets 395
scalar RSUExampleScenario.node[123].nic.mac1609_4 RXTXLostPackets 0
scalar RSUExampleScenario.node[123].nic.mac1609_4 TotalLostPackets 395
scalar RSUExampleScenario.node[123].nic.mac1609_4 DroppedPacketsInMac 0
scalar RSUExampleScenario.node[123].nic.mac1609_4 TooLittleTime 0
scalar RSUExampleScenario.node[123].nic.mac1609_4 TimesIntoBackoff 39
scalar RSUExampleScenario.node[123].nic.mac1609_4 SlotsBackoff 53
scalar RSUExampleScenario.node[123].nic.mac1609_4 NumInternalContention 0
scalar RSUExampleScenario.node[123].nic.mac1609_4 totalBusyTime 0.441535
scalar RSUExampleScenario.node[123].nic.mac1609_4 retriesExceeded:count 0
attr source org_car2x_veins_modules_mac_sigRetriesExceeded
scalar RSUExampleScenario.node[123].nic.mac1609_4 sentAcks:count 0
attr source org_car2x_veins_modules_mac_sigSentAck
scalar RSUExampleScenario.node[123].nic.mac1609_4 sentPackets:count 39
attr source org_car2x_veins_modules_mac_sigSentPacket
scalar RSUExampleScenario.node[123].nic.mac1609_4 collisions:count 0
attr source org_car2x_veins_modules_mac_sigCollision
scalar RSUExampleScenario.node[123].nic.mac1609_4 channelBusy:timeavg 0.11619342105263
attr source org_car2x_veins_modules_mac_sigChannelBusy
scalar RSUExampleScenario.node[123].veinsmobility startTime 116.2
scalar RSUExampleScenario.node[123].veinsmobility totalTime 3.8
scalar RSUExampleScenario.node[123].veinsmobility stopTime 120
scalar RSUExampleScenario.node[123].veinsmobility minSpeed 1.0320806101028
scalar RSUExampleScenario.node[123].veinsmobility maxSpeed 2.5883775254032
scalar RSUExampleScenario.node[123].veinsmobility totalDistance 7.9182491907615
scalar RSUExampleScenario.node[123].veinsmobility totalCO2Emission 5.2063124736767
scalar RSUExampleScenario.node[124].appl generatedWSMs 0
scalar RSUExampleScenario.node[124].appl receivedWSMs 0
scalar RSUExampleScenario.node[124].appl generatedBSMs 8
scalar RSUExampleScenario.node[124].appl receivedBSMs 821
scalar RSUExampleScenario.node[124].appl generatedWSAs 0
scalar RSUExampleScenario.node[124].appl receivedWSAs 0
scalar RSUExampleScenario.node[124].nic.phy80211p busyTime 0.11674
scalar RSUExampleScenario.node[124].nic.mac1609_4 ReceivedUnicastPackets 0
scalar RSUExampleScenario.node[124].nic.mac1609_4 ReceivedBroadcasts 821
scalar RSUExampleScenario.node[124].nic.mac1609_4 SentPackets 8
scalar RSUExampleScenario.node[124].nic.mac1609_4 SentAcknowledgements 0
scalar RSUExampleScenario.node[124].nic.mac1609_4 RetriesExceeded 0
scalar RSUExampleScenario.node[124].nic.mac1609_4 SNIRLostPackets 77
scalar RSUExampleScenario.node[124].nic.mac1609_4 RXTXLostPackets 0
scalar RSUExampleScenario.node[124].nic.mac1609_4 TotalLostPackets 77
scalar RSUExampleScenario.node[124].nic.mac1609_4 DroppedPacketsInMac 0
scalar RSUExampleScenario.node[124].nic.mac1609_4 TooLittleTime 0
scalar RSUExampleScenario.node[124].nic.mac1609_4 TimesIntoBackoff 8
scalar RSUExampleScenario.node[124].nic.mac1609_4 SlotsBackoff 10
scalar RSUExampleScenario.node[124].nic.mac1609_4 NumInternalContention 0
scalar RSUExampleScenario.node[124].nic.mac1609_4 totalBusyTime 0.094024
scalar RSUExampleScenario.node[124].nic.mac1609_4 retriesExceeded:count 0
attr source org_car2x_veins_modules_mac_sigRetriesExceeded
scalar RSUExampleScenario.node[124].nic.mac1609_4 sentAcks:count 0
attr source org_car2x_veins_modules_mac_sigSentAck
scalar RSUExampleScenario.node[124].nic.mac1609_4 sentPackets:count 8
attr source org_car2x_veins_modules_mac_sigSentPacket
scalar RSUExampleScenario.node[124].nic.mac1609_4 collisions:count 0
attr source org_car2x_veins_modules_mac_sigCollision
scalar RSUExampleScenario.node[124].nic.mac1609_4 channelBusy:timeavg 0.11753
attr source org_car2x_veins_modules_mac_sigChannelBusy
scalar RSUExampleScenario.node[124].veinsmobility startTime 119.2
scalar RSUExampleScenario.node[124].veinsmobility totalTime 0.8
scalar RSUExampleScenario.node[124].veinsmobility stopTime 120
scalar RSUExampleScenario.node[124].veinsmobility minSpeed 0.72393088235895
scalar RSUExampleScenario.node[124].veinsmobility maxSpeed 1.9853823195588
scalar RSUExampleScenario.node[124].veinsmobility totalDistance 4.2530497829567
scalar RSUExampleScenario.node[124].veinsmobility totalCO2Emission 1.268916045014
scalar RSUExampleScenario.node[125].appl generatedWSMs 0
scalar RSUExampleScenario.node[125].appl receivedWSMs 0
scalar RSUExampleScenario.node[125].appl generatedBSMs 7
scalar RSUExampleScenario.node[125].appl receivedBSMs 719
scalar RSUExampleScenario.node[125].appl generatedWSAs 0
scalar RSUExampleScenario.node[125].appl receivedWSAs 0
scalar RSUExampleScenario.node[125].nic.phy80211p busyTime 0.11677714285714
scalar RSUExampleScenario.node[125].nic.mac1609_4 ReceivedUnicastPackets 0
scalar RSUExampleScenario.node[125].nic.mac1609_4 ReceivedBroadcasts 719
scalar RSUExampleScenario.node[125].nic.mac1609_4 SentPackets 7
scalar RSUExampleScenario.node[125].nic.mac1609_4 SentAcknowledgements 0
scalar RSUExampleScenario.node[125].nic.mac1609_4 RetriesExceeded 0
scalar RSUExampleScenario.node[125].nic.mac1609_4 SNIRLostPackets 67
scalar RSUExampleScenario.node[125].nic.mac1609_4 RXTXLostPackets 0
scalar RSUExampleScenario.node[125].nic.mac1609_4 TotalLostPackets 67
scalar RSUExampleScenario.node[125].nic.mac1609_4 DroppedPacketsInMac 0
scalar RSUExampleScenario.node[125].nic.mac1609_4 TooLittleTime 0
scalar RSUExampleScenario.node[125].nic.mac1609_4 TimesIntoBackoff 7
scalar RSUExampleScenario.node[125].nic.mac1609_4 SlotsBackoff 5
scalar RSUExampleScenario.node[125].nic.mac1609_4 NumInternalContention 0
scalar RSUExampleScenario.node[125].nic.mac1609_4 totalBusyTime 0.082271
scalar RSUExampleScenario.node[125].nic.mac1609_4 retriesExceeded:count 0
attr source org_car2x_veins_modules_mac_sigRetriesExceeded
scalar RSUExampleScenario.node[125].nic.mac1609_4 sentAcks:count 0
attr source org_car2x_veins_modules_mac_sigSentAck
scalar RSUExampleScenario.node[125].nic.mac1609_4 sentPackets:count 7
attr source org_car2x_veins_modules_mac_sigSentPacket
scalar RSUExampleScenario.node[125].nic.mac1609_4 collisions:count 0
attr source org_car2x_veins_modules_mac_sigCollision
scalar RSUExampleScenario.node[125].nic.mac1609_4 channelBusy:timeavg 0.11753
attr source org_car2x_veins_modules_mac_sigChannelBusy
scalar RSUExampleScenario.node[125].veinsmobility startTime 119.3
scalar RSUExampleScenario.node[125].veinsmobility totalTime 0.7
scalar RSUExampleScenario.node[125].veinsmobility stopTime 120
scalar RSUExampleScenario.node[125].veinsmobility minSpeed 0.87956145331789
scalar RSUExampleScenario.node[125].veinsmobility maxSpeed 1.3558750845555
scalar RSUExampleScenario.node[125].veinsmobility totalDistance 0.79058117181705
scalar RSUExampleScenario.node[125].veinsmobility totalCO2Emission 0.83387909791409
scalar RSUExampleScenario.node[126].appl generatedWSMs 0
scalar RSUExampleScenario.node[126].appl receivedWSMs 0
scalar RSUExampleScenario.node[126].appl generatedBSMs 1
scalar RSUExampleScenario.node[126].appl receivedBSMs 99
scalar RSUExampleScenario.node[126].appl generatedWSAs 0
scalar RSUExampleScenario.node[126].appl receivedWSAs 0
scalar RSUExampleScenario.node[126].nic.phy80211p busyTime 0.11752
scalar RSUExampleScenario.node[126].nic.mac1609_4 ReceivedUnicastPackets 0
scalar RSUExampleScenario.node[126].nic.mac1609_4 ReceivedBroadcasts 99
scalar RSUExampleScenario.node[126].nic.mac1609_4 SentPackets 1
scalar RSUExampleScenario.node[126].nic.mac1609_4 SentAcknowledgements 0
scalar RSUExampleScenario.node[126].nic.mac1609_4 RetriesExceeded 0
scalar RSUExampleScenario.node[126].nic.mac1609_4 SNIRLostPackets 14
scalar RSUExampleScenario.node[126].nic.mac1609_4 RXTXLostPackets 0
scalar RSUExampleScenario.node[126].nic.mac1609_4 TotalLostPackets 14
scalar RSUExampleScenario.node[126].nic.mac1609_4 DroppedPacketsInMac 0
scalar RSUExampleScenario.node[126].nic.mac1609_4 TooLittleTime 0
scalar RSUExampleScenario.node[126].nic.mac1609_4 TimesIntoBackoff 1
scalar RSUExampleScenario.node[126].nic.mac1609_4 SlotsBackoff 2
scalar RSUExampleScenario.node[126].nic.mac1609_4 NumInternalContention 0
scalar RSUExampleScenario.node[126].nic.mac1609_4 totalBusyTime 0.011649
scalar RSUExampleScenario.node[126].nic.mac1609_4 retriesExceeded:count 0
attr source org_car2x_veins_modules_mac_sigRetriesExceeded
scalar RSUExampleScenario.node[126].nic.mac1609_4 sentAcks:count 0
attr source org_car2x_veins_modules_mac_sigSentAck
scalar RSUExampleScenario.node[126].nic.mac1609_4 sentPackets:count 1
attr source org_car2x_veins_modules_mac_sigSentPacket
scalar RSUExampleScenario.node[126].nic.mac1609_4 collisions:count 0
attr source org_car2x_veins_modules_mac_sigCollision
scalar RSUExampleScenario.node[126].nic.mac1609_4 channelBusy:timeavg 0.11649
attr source org_car2x_veins_modules_mac_sigChannelBusy
scalar RSUExampleScenario.node[126].veinsmobility startTime 119.9
scalar RSUExampleScenario.node[126].veinsmobility totalTime 0.1
scalar RSUExampleScenario.node[126].veinsmobility stopTime 120
scalar RSUExampleScenario.node[126].veinsmobility minSpeed 0.77819499471966
scalar RSUExampleScenario.node[126].veinsmobility maxSpeed 0.77819499471966
scalar RSUExampleScenario.node[126].veinsmobility totalDistance 0.077819499471957
scalar RSUExampleScenario.node[126].veinsmobility totalCO2Emission 0

