version 2
run High_Retransmission-0-20250826-10:56:32-11199
attr configname High_Retransmission
attr datetime 20250826-10:56:32
attr experiment High_Retransmission
attr inifile omnetpp.ini
attr iterationvars ""
attr iterationvarsf ""
attr measurement ""
attr network WiredAndWirelessHostsWithAP
attr processid 11199
attr repetition 0
attr replication #0
attr resultdir results
attr runnumber 0
attr seedset 210041226
param **.wlan*.bitrate 1Mbps
param **.*Host[*].app[*].messageLength 100B
param **.*Host[*].app[*].sendInterval 1s
param WiredAndWirelessHostsWithAP.num_wireless 3
param WiredAndWirelessHostsWithAP.num_wired 3
param **.*Host[*].wlan[*].mac.dcf.channelAccess.cwMax 1023
param **.*Host[*].wlan[*].mac.dcf.channelAccess.cwMin 15
param **.constraintAreaMinX 0m
param **.constraintAreaMinY 0m
param **.constraintAreaMinZ 0m
param **.constraintAreaMaxX 400m
param **.constraintAreaMaxY 400m
param **.constraintAreaMaxZ 0m
param **.initialZ 0m
param *.visualizer.packetDropVisualizer.displayPacketDrops true
param *.visualizer.mediumVisualizer.displayCommunicationRanges true
param *.visualizer.mediumVisualizer.displayInterferenceRanges true
param **.bitrate 2Mbps
param **.radio.transmitter.power 20mW
param **.radio.receiver.sensitivity -85dBm
param **.radio.receiver.snirThreshold 4dB
param **.radio.receiver.bandwidth "22 MHz"
param **.radioMedium.analogModel.typename "\"ScalarAnalogModel\""
param **.errorModel.typename "\"Ieee80211YansErrorModel\""
param **.radioMedium.backgroundNoise.power -90dBm
param **.hasUdp true
param **.*Host*.numApps 1
param **.sinkNode.udp.typename "\"Udp\""
param **.sinkNode.numApps 1
param **.sinkNode.app[0].typename "\"UdpSink\""
param **.sinkNode.app[0].localPort 1000
param **.*Host[*].app[0].typename "\"UdpBasicApp\""
param **.*Host[*].app[0].destAddresses "\"sinkNode\""
param **.*Host[*].app[*].destPort 1000
param **.*Host[*].app[*].messageLength 100B
param **.*Host[*].app[*].sendInterval 1s
param **.*Host[*].wlan[*].mac.dcf.channelAccess.pendingQueue.packetCapacity 100
param **.*Host[*].wlan[*].mac.dcf.channelAccess.cwMax 1023
param **.*Host[*].wlan[*].mac.dcf.channelAccess.cwMin 15
param **.wlan[*].mac.dcf.recoveryProcedure.shortRetryLimit 7
param **.wlan[*].mac.dcf.rtsPolicy.rtsThreshold 1024B
param WiredAndWirelessHostsWithAP.num_wireless 3
param WiredAndWirelessHostsWithAP.num_wired 3

scalar WiredAndWirelessHostsWithAP.radioMedium.propagation "Arrival computation count" 2472
scalar WiredAndWirelessHostsWithAP.radioMedium "transmission count" 824
scalar WiredAndWirelessHostsWithAP.radioMedium "signal send count" 2472
scalar WiredAndWirelessHostsWithAP.radioMedium "reception computation count" 2463
scalar WiredAndWirelessHostsWithAP.radioMedium "interference computation count" 7638
scalar WiredAndWirelessHostsWithAP.radioMedium "reception decision computation count" 2131
scalar WiredAndWirelessHostsWithAP.radioMedium "listening decision computation count" 3288
scalar WiredAndWirelessHostsWithAP.radioMedium "reception cache hit" 84.84680693983
attr unit %
scalar WiredAndWirelessHostsWithAP.radioMedium "interference cache hit" 66.666666666667
attr unit %
scalar WiredAndWirelessHostsWithAP.radioMedium "noise cache hit" 0
attr unit %
scalar WiredAndWirelessHostsWithAP.radioMedium "snir cache hit" 50
attr unit %
scalar WiredAndWirelessHostsWithAP.radioMedium "reception decision cache hit" 50
attr unit %
scalar WiredAndWirelessHostsWithAP.radioMedium "reception result cache hit" 0
attr unit %
scalar WiredAndWirelessHostsWithAP.wirelessHost[0].lo[0].lo rcvdPkFromHl:count 0
attr interpolationmode none
attr source packetReceivedFromUpper
attr title "packets received from higher layer, count"
scalar WiredAndWirelessHostsWithAP.wirelessHost[0].lo[0].lo rcvdPkFromHl:sum(packetBytes) 0
attr interpolationmode none
attr source packetReceivedFromUpper
attr title "packets received from higher layer, sum(packetBytes)"
scalar WiredAndWirelessHostsWithAP.wirelessHost[0].lo[0].lo passedUpPk:count 0
attr interpolationmode none
attr source packetSentToUpper
attr title "packets passed to higher layer, count"
scalar WiredAndWirelessHostsWithAP.wirelessHost[0].lo[0].lo passedUpPk:sum(packetBytes) 0
attr interpolationmode none
attr source packetSentToUpper
attr title "packets passed to higher layer, sum(packetBytes)"
scalar WiredAndWirelessHostsWithAP.wirelessHost[0].wlan[0].agent dropConfirm:count 0
attr title "dropped confirms, count"
scalar WiredAndWirelessHostsWithAP.wirelessHost[0].wlan[0].agent acceptConfirm:count 3
attr title "accepted confirms, count"
scalar WiredAndWirelessHostsWithAP.wirelessHost[0].wlan[0].agent sentRequest:count 3
attr title "sent requests, count"
scalar WiredAndWirelessHostsWithAP.wirelessHost[0].wlan[0].mac.dcf.channelAccess.pendingQueue packetPopped:count 45
attr interpolationmode none
attr title "packet popped, count"
scalar WiredAndWirelessHostsWithAP.wirelessHost[0].wlan[0].mac.dcf.channelAccess.pendingQueue packetPopped:sum(packetBytes) 6760
attr interpolationmode none
attr title "packet popped, sum(packetBytes)"
statistic WiredAndWirelessHostsWithAP.wirelessHost[0].wlan[0].mac.dcf.channelAccess.pendingQueue queueingTime:histogram
field count 45
field mean 2.6488888888889e-05
field stddev 0.00011410852534125
field min 0
field max 0.000664
field sum 0.001192
field sqrsum 6.04488e-07
attr interpolationmode none
attr source queueingTime(packetPopped)
attr title "queueing times, histogram"
attr unit s
bin	-inf	0
bin	0	42
bin	1e-05	0
bin	2e-05	0
bin	3e-05	0
bin	4e-05	0
bin	5e-05	0
bin	6e-05	0
bin	7e-05	0
bin	8e-05	0
bin	9e-05	0
bin	0.0001	0
bin	0.00011	0
bin	0.00012	0
bin	0.00013	0
bin	0.00014	0
bin	0.00015	1
bin	0.00016	0
bin	0.00017	0
bin	0.00018	0
bin	0.00019	0
bin	0.0002	0
bin	0.00021	0
bin	0.00022	0
bin	0.00023	0
bin	0.00024	0
bin	0.00025	0
bin	0.00026	0
bin	0.00027	0
bin	0.00028	0
bin	0.00029	0
bin	0.0003	0
bin	0.00031	0
bin	0.00032	0
bin	0.00033	0
bin	0.00034	0
bin	0.00035	0
bin	0.00036	0
bin	0.00037	1
bin	0.00038	0
bin	0.00039	0
bin	0.0004	0
bin	0.00041	0
bin	0.00042	0
bin	0.00043	0
bin	0.00044	0
bin	0.00045	0
bin	0.00046	0
bin	0.00047	0
bin	0.00048	0
bin	0.00049	0
bin	0.0005	0
bin	0.00051	0
bin	0.00052	0
bin	0.00053	0
bin	0.00054	0
bin	0.00055	0
bin	0.00056	0
bin	0.00057	0
bin	0.00058	0
bin	0.00059	0
bin	0.0006	0
bin	0.00061	0
bin	0.00062	0
bin	0.00063	0
bin	0.00064	0
bin	0.00065	0
bin	0.00066	1
bin	0.00067	0
bin	0.00068	0
bin	0.00069	0
bin	0.0007	0
bin	0.00071	0
bin	0.00072	0
bin	0.00073	0
bin	0.00074	0
bin	0.00075	0
bin	0.00076	0
bin	0.00077	0
bin	0.00078	0
bin	0.00079	0
bin	0.0008	0
bin	0.00081	0
bin	0.00082	0
bin	0.00083	0
scalar WiredAndWirelessHostsWithAP.wirelessHost[0].wlan[0].mac.dcf.channelAccess.pendingQueue queueLength:max 1
attr interpolationmode sample-hold
attr source "count(packetPushed) - count(packetPopped) - count(packetRemoved) - count(packetDropped)"
attr title "queue length, max"
scalar WiredAndWirelessHostsWithAP.wirelessHost[0].wlan[0].mac.dcf.channelAccess.pendingQueue queueLength:timeavg 3.0100683915561e-05
attr interpolationmode sample-hold
attr source "count(packetPushed) - count(packetPopped) - count(packetRemoved) - count(packetDropped)"
attr title "queue length, timeavg"
scalar WiredAndWirelessHostsWithAP.wirelessHost[0].wlan[0].mac.dcf.channelAccess.pendingQueue packetPushed:count 45
attr interpolationmode none
attr title "packet pushed, count"
scalar WiredAndWirelessHostsWithAP.wirelessHost[0].wlan[0].mac.dcf.channelAccess.pendingQueue packetPushed:sum(packetBytes) 6760
attr interpolationmode none
attr title "packet pushed, sum(packetBytes)"
scalar WiredAndWirelessHostsWithAP.wirelessHost[0].wlan[0].mac.dcf.channelAccess.pendingQueue packetDropQueueOverflow:count 0
attr interpolationmode none
attr source packetDropReasonIsQueueOverflow(packetDropped)
attr title "packet drops: queue overflow, count"
scalar WiredAndWirelessHostsWithAP.wirelessHost[0].wlan[0].mac.dcf.channelAccess.pendingQueue packetDropQueueOverflow:sum(packetBytes) 0
attr interpolationmode none
attr source packetDropReasonIsQueueOverflow(packetDropped)
attr title "packet drops: queue overflow, sum(packetBytes)"
scalar WiredAndWirelessHostsWithAP.wirelessHost[0].wlan[0].mac.dcf.channelAccess.pendingQueue packetRemoved:count 0
attr interpolationmode none
attr title "packets removed, count"
scalar WiredAndWirelessHostsWithAP.wirelessHost[0].wlan[0].mac.dcf.channelAccess.pendingQueue packetRemoved:sum(packetBytes) 0
attr interpolationmode none
attr title "packets removed, sum(packetBytes)"
statistic WiredAndWirelessHostsWithAP.wirelessHost[0].wlan[0].mac.dcf.channelAccess.inProgressFrames queueingTime:histogram
field count 44
field mean 0.0047979278995
field stddev 0.0023294633432731
field min 3.8e-05
field max 0.010212855837
field sum 0.211108827578
field sqrsum 0.0012462201107763
attr interpolationmode none
attr source queueingTime(packetDequeued)
attr title "queueing times, histogram"
bin	-inf	0
bin	0	4
bin	0.0002	0
bin	0.0004	0
bin	0.0006	0
bin	0.0008	0
bin	0.001	0
bin	0.0012	0
bin	0.0014	0
bin	0.0016	0
bin	0.0018	1
bin	0.002	1
bin	0.0022	0
bin	0.0024	0
bin	0.0026	0
bin	0.0028	0
bin	0.003	0
bin	0.0032	0
bin	0.0034	0
bin	0.0036	7
bin	0.0038	7
bin	0.004	3
bin	0.0042	0
bin	0.0044	0
bin	0.0046	0
bin	0.0048	0
bin	0.005	0
bin	0.0052	0
bin	0.0054	0
bin	0.0056	5
bin	0.0058	7
bin	0.006	1
bin	0.0062	0
bin	0.0064	0
bin	0.0066	0
bin	0.0068	0
bin	0.007	0
bin	0.0072	0
bin	0.0074	0
bin	0.0076	1
bin	0.0078	6
bin	0.008	0
bin	0.0082	0
bin	0.0084	0
bin	0.0086	0
bin	0.0088	0
bin	0.009	0
bin	0.0092	0
bin	0.0094	0
bin	0.0096	0
bin	0.0098	0
bin	0.01	0
bin	0.0102	1
bin	0.0104	0
bin	0.0106	0
bin	0.0108	0
bin	0.011	0
bin	0.0112	0
bin	0.0114	0
bin	0.0116	0
bin	0.0118	0
bin	0.012	0
bin	0.0122	0
bin	0.0124	0
bin	0.0126	0
bin	0.0128	0
scalar WiredAndWirelessHostsWithAP.wirelessHost[0].wlan[0].mac.dcf.channelAccess.inProgressFrames queueLength:max 1
attr interpolationmode sample-hold
attr source "count(packetEnqueued) - count(packetDequeued)"
attr title "queue length, max"
scalar WiredAndWirelessHostsWithAP.wirelessHost[0].wlan[0].mac.dcf.channelAccess.inProgressFrames queueLength:timeavg 0.0053309732304614
attr interpolationmode sample-hold
attr source "count(packetEnqueued) - count(packetDequeued)"
attr title "queue length, timeavg"
scalar WiredAndWirelessHostsWithAP.wirelessHost[0].wlan[0].mac.dcf.channelAccess.contention channelAccessGranted:count 86
attr title "channel access granted, count"
scalar WiredAndWirelessHostsWithAP.wirelessHost[0].wlan[0].mac.dcf.channelAccess.contention stateChanged:count 3132
attr interpolationmode none
attr title "contention state changed, count"
scalar WiredAndWirelessHostsWithAP.wirelessHost[0].wlan[0].mac.dcf.channelAccess channelOwnershipChanged:count 171
attr interpolationmode sample-hold
attr title "channel ownership, count"
scalar WiredAndWirelessHostsWithAP.wirelessHost[0].wlan[0].mac.dcf.originatorMacDataService packetAggregated:count 0
attr title "packets aggregated, count"
scalar WiredAndWirelessHostsWithAP.wirelessHost[0].wlan[0].mac.dcf.originatorMacDataService packetFragmented:count 0
attr title "packets fragmented, count"
scalar WiredAndWirelessHostsWithAP.wirelessHost[0].wlan[0].mac.dcf.recipientMacDataService packetDeaggregated:count 0
attr title "packets deaggregated, count"
scalar WiredAndWirelessHostsWithAP.wirelessHost[0].wlan[0].mac.dcf.recipientMacDataService packetDefragmented:count 410
attr title "packets defragmented, count"
scalar WiredAndWirelessHostsWithAP.wirelessHost[0].wlan[0].mac.dcf.recipientMacDataService packetDropDuplicateDetected:count 0
attr interpolationmode none
attr source packetDropReasonIsDuplicateDetected(packetDropped)
attr title "packet drops: duplicate detected, count"
scalar WiredAndWirelessHostsWithAP.wirelessHost[0].wlan[0].mac.dcf.recipientMacDataService packetDropDuplicateDetected:sum(packetBytes) 0
attr interpolationmode none
attr source packetDropReasonIsDuplicateDetected(packetDropped)
attr title "packet drops: duplicate detected, sum(packetBytes)"
scalar WiredAndWirelessHostsWithAP.wirelessHost[0].wlan[0].mac.dcf.recoveryProcedure retryLimitReached:count 0
attr title "retry limit reached, count"
scalar WiredAndWirelessHostsWithAP.wirelessHost[0].wlan[0].mac.dcf frameSequenceFinished:count 85
attr title "finished frame sequences, count"
statistic WiredAndWirelessHostsWithAP.wirelessHost[0].wlan[0].mac.dcf frameSequenceDuration:histogram
field count 85
field mean 0.0016730884304
field stddev 0.00038029846085208
field min 3.8e-05
field max 0.001818709688
field sum 0.142212516584
field sqrsum 0.00025008277737818
attr source frameSequenceDuration(frameSequenceFinished)
attr title "frame sequence durations, histogram"
bin	-inf	0
bin	0	1
bin	5e-05	3
bin	0.0001	0
bin	0.00015	0
bin	0.0002	0
bin	0.00025	0
bin	0.0003	0
bin	0.00035	0
bin	0.0004	0
bin	0.00045	0
bin	0.0005	0
bin	0.00055	0
bin	0.0006	0
bin	0.00065	0
bin	0.0007	0
bin	0.00075	0
bin	0.0008	0
bin	0.00085	0
bin	0.0009	1
bin	0.00095	0
bin	0.001	1
bin	0.00105	0
bin	0.0011	0
bin	0.00115	0
bin	0.0012	0
bin	0.00125	0
bin	0.0013	0
bin	0.00135	0
bin	0.0014	0
bin	0.00145	0
bin	0.0015	0
bin	0.00155	0
bin	0.0016	0
bin	0.00165	0
bin	0.0017	40
bin	0.00175	0
bin	0.0018	39
bin	0.00185	0
bin	0.0019	0
bin	0.00195	0
bin	0.002	0
bin	0.00205	0
bin	0.0021	0
bin	0.00215	0
bin	0.0022	0
bin	0.00225	0
bin	0.0023	0
statistic WiredAndWirelessHostsWithAP.wirelessHost[0].wlan[0].mac.dcf frameSequenceNumPackets:histogram
field count 85
field mean 1.9882352941176
field stddev 0.10846522890933
field min 1
field max 2
field sum 169
field sqrsum 337
attr source frameSequenceNumPackets(frameSequenceFinished)
attr title "frame sequences: number of packets, histogram"
bin	-inf	0
bin	0	0
bin	1	1
bin	2	84
bin	3	0
scalar WiredAndWirelessHostsWithAP.wirelessHost[0].wlan[0].mac.dcf packetReceivedFromPeer:count 453
attr interpolationmode none
attr title "packets received, count"
scalar WiredAndWirelessHostsWithAP.wirelessHost[0].wlan[0].mac.dcf packetReceivedFromPeer:sum(packetBytes) 20310
attr interpolationmode none
attr title "packets received, sum(packetBytes)"
scalar WiredAndWirelessHostsWithAP.wirelessHost[0].wlan[0].mac.dcf packetReceivedFromPeerUnicast:count 48
attr interpolationmode none
attr source ieee80211Unicast(packetReceivedFromPeer)
attr title "packets received: unicast, count"
scalar WiredAndWirelessHostsWithAP.wirelessHost[0].wlan[0].mac.dcf packetReceivedFromPeerUnicast:sum(packetBytes) 836
attr interpolationmode none
attr source ieee80211Unicast(packetReceivedFromPeer)
attr title "packets received: unicast, sum(packetBytes)"
scalar WiredAndWirelessHostsWithAP.wirelessHost[0].wlan[0].mac.dcf packetReceivedFromPeerMulticast:count 405
attr interpolationmode none
attr source ieee80211Multicast(packetReceivedFromPeer)
attr title "packets received: multicast, count"
scalar WiredAndWirelessHostsWithAP.wirelessHost[0].wlan[0].mac.dcf packetReceivedFromPeerMulticast:sum(packetBytes) 19474
attr interpolationmode none
attr source ieee80211Multicast(packetReceivedFromPeer)
attr title "packets received: multicast, sum(packetBytes)"
scalar WiredAndWirelessHostsWithAP.wirelessHost[0].wlan[0].mac.dcf packetReceivedFromPeerBroadcast:count 405
attr interpolationmode none
attr source ieee80211Broadcast(packetReceivedFromPeer)
attr title "packets received: broadcast, count"
scalar WiredAndWirelessHostsWithAP.wirelessHost[0].wlan[0].mac.dcf packetReceivedFromPeerBroadcast:sum(packetBytes) 19474
attr interpolationmode none
attr source ieee80211Broadcast(packetReceivedFromPeer)
attr title "packets received: broadcast, sum(packetBytes)"
scalar WiredAndWirelessHostsWithAP.wirelessHost[0].wlan[0].mac.dcf packetReceivedFromPeerWithRetry:count 2
attr interpolationmode none
attr source ieee80211Retry(packetReceivedFromPeer)
attr title "packets received: with retry, count"
scalar WiredAndWirelessHostsWithAP.wirelessHost[0].wlan[0].mac.dcf packetReceivedFromPeerWithRetry:sum(packetBytes) 128
attr interpolationmode none
attr source ieee80211Retry(packetReceivedFromPeer)
attr title "packets received: with retry, sum(packetBytes)"
scalar WiredAndWirelessHostsWithAP.wirelessHost[0].wlan[0].mac.dcf packetReceivedFromPeerWithoutRetry:count 451
attr interpolationmode none
attr source ieee80211NotRetry(packetReceivedFromPeer)
attr title "packets received: without retry, count"
scalar WiredAndWirelessHostsWithAP.wirelessHost[0].wlan[0].mac.dcf packetReceivedFromPeerWithoutRetry:sum(packetBytes) 20182
attr interpolationmode none
attr source ieee80211NotRetry(packetReceivedFromPeer)
attr title "packets received: without retry, sum(packetBytes)"
scalar WiredAndWirelessHostsWithAP.wirelessHost[0].wlan[0].mac.dcf packetSentToPeer:count 90
attr interpolationmode none
attr title "packets sent, count"
scalar WiredAndWirelessHostsWithAP.wirelessHost[0].wlan[0].mac.dcf packetSentToPeer:sum(packetBytes) 13290
attr interpolationmode none
attr title "packets sent, sum(packetBytes)"
scalar WiredAndWirelessHostsWithAP.wirelessHost[0].wlan[0].mac.dcf packetSentToPeerUnicast:count 89
attr interpolationmode none
attr source ieee80211Unicast(packetSentToPeer)
attr title "packets sent: unicast, count"
scalar WiredAndWirelessHostsWithAP.wirelessHost[0].wlan[0].mac.dcf packetSentToPeerUnicast:sum(packetBytes) 13258
attr interpolationmode none
attr source ieee80211Unicast(packetSentToPeer)
attr title "packets sent: unicast, sum(packetBytes)"
scalar WiredAndWirelessHostsWithAP.wirelessHost[0].wlan[0].mac.dcf packetSentToPeerMulticast:count 1
attr interpolationmode none
attr source ieee80211Multicast(packetSentToPeer)
attr title "packets sent: multicast, count"
scalar WiredAndWirelessHostsWithAP.wirelessHost[0].wlan[0].mac.dcf packetSentToPeerMulticast:sum(packetBytes) 32
attr interpolationmode none
attr source ieee80211Multicast(packetSentToPeer)
attr title "packets sent: multicast, sum(packetBytes)"
scalar WiredAndWirelessHostsWithAP.wirelessHost[0].wlan[0].mac.dcf packetSentToPeerBroadcast:count 1
attr interpolationmode none
attr source ieee80211Broadcast(packetSentToPeer)
attr title "packets sent: broadcast , count"
scalar WiredAndWirelessHostsWithAP.wirelessHost[0].wlan[0].mac.dcf packetSentToPeerBroadcast:sum(packetBytes) 32
attr interpolationmode none
attr source ieee80211Broadcast(packetSentToPeer)
attr title "packets sent: broadcast , sum(packetBytes)"
scalar WiredAndWirelessHostsWithAP.wirelessHost[0].wlan[0].mac.dcf packetSentToPeerWithRetry:count 41
attr interpolationmode none
attr source ieee80211Retry(packetSentToPeer)
attr title "packets sent: with retry, count"
scalar WiredAndWirelessHostsWithAP.wirelessHost[0].wlan[0].mac.dcf packetSentToPeerWithRetry:sum(packetBytes) 6624
attr interpolationmode none
attr source ieee80211Retry(packetSentToPeer)
attr title "packets sent: with retry, sum(packetBytes)"
scalar WiredAndWirelessHostsWithAP.wirelessHost[0].wlan[0].mac.dcf packetSentToPeerWithoutRetry:count 49
attr interpolationmode none
attr source ieee80211NotRetry(packetSentToPeer)
attr title "packets sent: without retry, count"
scalar WiredAndWirelessHostsWithAP.wirelessHost[0].wlan[0].mac.dcf packetSentToPeerWithoutRetry:sum(packetBytes) 6666
attr interpolationmode none
attr source ieee80211NotRetry(packetSentToPeer)
attr title "packets sent: without retry, sum(packetBytes)"
scalar WiredAndWirelessHostsWithAP.wirelessHost[0].wlan[0].mac.dcf packetDrop:count 193
attr interpolationmode none
attr source packetDropped
attr title "packet drops, count"
scalar WiredAndWirelessHostsWithAP.wirelessHost[0].wlan[0].mac.dcf packetDrop:sum(packetBytes) 15004
attr interpolationmode none
attr source packetDropped
attr title "packet drops, sum(packetBytes)"
scalar WiredAndWirelessHostsWithAP.wirelessHost[0].wlan[0].mac.dcf packetDropNotAddressedToUs:count 193
attr interpolationmode none
attr source packetDropReasonIsNotAddressedToUs(packetDropped)
attr title "packet drops: not addressed to us, count"
scalar WiredAndWirelessHostsWithAP.wirelessHost[0].wlan[0].mac.dcf packetDropNotAddressedToUs:sum(packetBytes) 15004
attr interpolationmode none
attr source packetDropReasonIsNotAddressedToUs(packetDropped)
attr title "packet drops: not addressed to us, sum(packetBytes)"
scalar WiredAndWirelessHostsWithAP.wirelessHost[0].wlan[0].mac.dcf packetDropQueueOverflow:count 0
attr interpolationmode none
attr source packetDropReasonIsQueueOverflow(packetDropped)
attr title "packet drops: queue overflow, count"
scalar WiredAndWirelessHostsWithAP.wirelessHost[0].wlan[0].mac.dcf packetDropQueueOverflow:sum(packetBytes) 0
attr interpolationmode none
attr source packetDropReasonIsQueueOverflow(packetDropped)
attr title "packet drops: queue overflow, sum(packetBytes)"
scalar WiredAndWirelessHostsWithAP.wirelessHost[0].wlan[0].mac.dcf packetDropRetryLimitReached:count 0
attr interpolationmode none
attr source packetDropReasonIsRetryLimitReached(packetDropped)
attr title "packet drops: retry limit reached, count"
scalar WiredAndWirelessHostsWithAP.wirelessHost[0].wlan[0].mac.dcf packetDropRetryLimitReached:sum(packetBytes) 0
attr interpolationmode none
attr source packetDropReasonIsRetryLimitReached(packetDropped)
attr title "packet drops: retry limit reached, sum(packetBytes)"
scalar WiredAndWirelessHostsWithAP.wirelessHost[0].wlan[0].mac.dcf linkBroken:count 0
attr interpolationmode none
attr title "link breaks, count"
scalar WiredAndWirelessHostsWithAP.wirelessHost[0].wlan[0].mac packetReceivedFromLower:count 648
attr interpolationmode none
attr title "packets received from lower layer, count"
scalar WiredAndWirelessHostsWithAP.wirelessHost[0].wlan[0].mac packetReceivedFromLower:sum(packetBytes) 35642
attr interpolationmode none
attr title "packets received from lower layer, sum(packetBytes)"
scalar WiredAndWirelessHostsWithAP.wirelessHost[0].wlan[0].mac packetSentToLower:count 91
attr interpolationmode none
attr title "packets sent to lower layer, count"
scalar WiredAndWirelessHostsWithAP.wirelessHost[0].wlan[0].mac packetSentToLower:sum(packetBytes) 13454
attr interpolationmode none
attr title "packets sent to lower layer, sum(packetBytes)"
scalar WiredAndWirelessHostsWithAP.wirelessHost[0].wlan[0].mac packetReceivedFromUpper:count 41
attr interpolationmode none
attr title "packets received from upper layer, count"
scalar WiredAndWirelessHostsWithAP.wirelessHost[0].wlan[0].mac packetReceivedFromUpper:sum(packetBytes) 5476
attr interpolationmode none
attr title "packets received from upper layer, sum(packetBytes)"
scalar WiredAndWirelessHostsWithAP.wirelessHost[0].wlan[0].mac packetSentToUpper:count 4
attr interpolationmode none
attr title "packets sent to upper layer, count"
scalar WiredAndWirelessHostsWithAP.wirelessHost[0].wlan[0].mac packetSentToUpper:sum(packetBytes) 180
attr interpolationmode none
attr title "packets sent to upper layer, sum(packetBytes)"
scalar WiredAndWirelessHostsWithAP.wirelessHost[0].wlan[0].mac packetDrop:count 195
attr interpolationmode none
attr source packetDropped
attr title "packet drops, count"
scalar WiredAndWirelessHostsWithAP.wirelessHost[0].wlan[0].mac packetDrop:sum(packetBytes) 15332
attr interpolationmode none
attr source packetDropped
attr title "packet drops, sum(packetBytes)"
scalar WiredAndWirelessHostsWithAP.wirelessHost[0].wlan[0].mac packetDropIncorrectlyReceived:count 2
attr interpolationmode none
attr source packetDropReasonIsIncorrectlyReceived(packetDropped)
attr title "packet drops: incorrectly received, count"
scalar WiredAndWirelessHostsWithAP.wirelessHost[0].wlan[0].mac packetDropIncorrectlyReceived:sum(packetBytes) 328
attr interpolationmode none
attr source packetDropReasonIsIncorrectlyReceived(packetDropped)
attr title "packet drops: incorrectly received, sum(packetBytes)"
scalar WiredAndWirelessHostsWithAP.wirelessHost[0].wlan[0].mac packetDropNotAddressedToUs:count 193
attr interpolationmode none
attr source packetDropReasonIsNotAddressedToUs(packetDropped)
attr title "packet drops: not addressed to us, count"
scalar WiredAndWirelessHostsWithAP.wirelessHost[0].wlan[0].mac packetDropNotAddressedToUs:sum(packetBytes) 15004
attr interpolationmode none
attr source packetDropReasonIsNotAddressedToUs(packetDropped)
attr title "packet drops: not addressed to us, sum(packetBytes)"
scalar WiredAndWirelessHostsWithAP.wirelessHost[0].wlan[0].mac packetDropQueueOverflow:count 0
attr interpolationmode none
attr source packetDropReasonIsQueueOverflow(packetDropped)
attr title "packet drops: queue overflow, count"
scalar WiredAndWirelessHostsWithAP.wirelessHost[0].wlan[0].mac packetDropQueueOverflow:sum(packetBytes) 0
attr interpolationmode none
attr source packetDropReasonIsQueueOverflow(packetDropped)
attr title "packet drops: queue overflow, sum(packetBytes)"
scalar WiredAndWirelessHostsWithAP.wirelessHost[0].wlan[0].mac packetDropRetryLimitReached:count 0
attr interpolationmode none
attr source packetDropReasonIsRetryLimitReached(packetDropped)
attr title "packet drops: retry limit reached, count"
scalar WiredAndWirelessHostsWithAP.wirelessHost[0].wlan[0].mac packetDropRetryLimitReached:sum(packetBytes) 0
attr interpolationmode none
attr source packetDropReasonIsRetryLimitReached(packetDropped)
attr title "packet drops: retry limit reached, sum(packetBytes)"
scalar WiredAndWirelessHostsWithAP.wirelessHost[0].wlan[0].mac packetDropDuplicateDetected:count 0
attr interpolationmode none
attr source packetDropReasonIsDuplicateDetected(packetDropped)
attr title "packet drops: duplicate detected, count"
scalar WiredAndWirelessHostsWithAP.wirelessHost[0].wlan[0].mac packetDropDuplicateDetected:sum(packetBytes) 0
attr interpolationmode none
attr source packetDropReasonIsDuplicateDetected(packetDropped)
attr title "packet drops: duplicate detected, sum(packetBytes)"
scalar WiredAndWirelessHostsWithAP.wirelessHost[0].wlan[0].mac packetDropOther:count 0
attr interpolationmode none
attr source packetDropReasonIsOther(packetDropped)
attr title "packet drops: other, count"
scalar WiredAndWirelessHostsWithAP.wirelessHost[0].wlan[0].mac packetDropOther:sum(packetBytes) 0
attr interpolationmode none
attr source packetDropReasonIsOther(packetDropped)
attr title "packet drops: other, sum(packetBytes)"
scalar WiredAndWirelessHostsWithAP.wirelessHost[0].wlan[0].mac linkBroken:count 0
attr interpolationmode none
attr title "link breaks, count"
statistic WiredAndWirelessHostsWithAP.wirelessHost[0].wlan[0].radio radioChannel:histogram
field count 4
field mean 0
field stddev 0
field min 0
field max 0
field sum 0
field sqrsum 0
attr interpolationmode sample-hold
attr source radioChannelChanged
attr title "Radio channel, histogram"
bin	-inf	0
bin	-0.5	0
bin	-0.48	0
bin	-0.46	0
bin	-0.44	0
bin	-0.42	0
bin	-0.4	0
bin	-0.38	0
bin	-0.36	0
bin	-0.34	0
bin	-0.32	0
bin	-0.3	0
bin	-0.28	0
bin	-0.26	0
bin	-0.24	0
bin	-0.22	0
bin	-0.2	0
bin	-0.18	0
bin	-0.16	0
bin	-0.14	0
bin	-0.12	0
bin	-0.1	0
bin	-0.08	0
bin	-0.06	0
bin	-0.04	0
bin	-0.02	0
bin	0	4
bin	0.02	0
bin	0.04	0
bin	0.06	0
bin	0.08	0
bin	0.1	0
bin	0.12	0
bin	0.14	0
bin	0.16	0
bin	0.18	0
bin	0.2	0
bin	0.22	0
bin	0.24	0
bin	0.26	0
bin	0.28	0
bin	0.3	0
bin	0.32	0
bin	0.34	0
bin	0.36	0
bin	0.38	0
bin	0.4	0
bin	0.42	0
bin	0.44	0
bin	0.46	0
bin	0.48	0
bin	0.5	0
scalar WiredAndWirelessHostsWithAP.wirelessHost[0].wlan[0].radio radioMode:count 184
attr interpolationmode sample-hold
attr source radioModeChanged
attr title "Radio mode, count"
scalar WiredAndWirelessHostsWithAP.wirelessHost[0].wlan[0].radio receptionState:count 1522
attr interpolationmode sample-hold
attr source receptionStateChanged
attr title "Radio reception state, count"
scalar WiredAndWirelessHostsWithAP.wirelessHost[0].wlan[0].radio transmissionState:count 362
attr interpolationmode sample-hold
attr source transmissionStateChanged
attr title "Radio transmission state, count"
statistic WiredAndWirelessHostsWithAP.wirelessHost[0].wlan[0].radio minSnir:histogram
field count 648
field mean 150.31939929105
field stddev 52.96419140019
field min 1.5438572232791
field max 172.89406378891
field sum 97406.970740603
field sqrsum 16457125.332716
attr source minimumSnir(packetSentToUpper)
attr title "Min SNIR, histogram"
bin	-inf	0
bin	0	2
bin	5	0
bin	10	0
bin	15	0
bin	20	49
bin	25	0
bin	30	49
bin	35	0
bin	40	0
bin	45	0
bin	50	0
bin	55	0
bin	60	0
bin	65	0
bin	70	0
bin	75	0
bin	80	0
bin	85	0
bin	90	0
bin	95	0
bin	100	0
bin	105	0
bin	110	0
bin	115	0
bin	120	0
bin	125	0
bin	130	0
bin	135	0
bin	140	0
bin	145	0
bin	150	0
bin	155	0
bin	160	0
bin	165	0
bin	170	548
bin	175	0
bin	180	0
bin	185	0
bin	190	0
bin	195	0
bin	200	0
bin	205	0
bin	210	0
bin	215	0
statistic WiredAndWirelessHostsWithAP.wirelessHost[0].wlan[0].radio packetErrorRate:histogram
field count 648
field mean 0.0030864213506021
field stddev 0.055512605668486
field min 0
field max 0.99999999999998
field sum 2.0000010351902
field sqrsum 2.0000000000001
attr source packetErrorRate(packetSentToUpper)
attr title "Packet error rate, histogram"
bin	-inf	0
bin	0	646
bin	0.02	0
bin	0.04	0
bin	0.06	0
bin	0.08	0
bin	0.1	0
bin	0.12	0
bin	0.14	0
bin	0.16	0
bin	0.18	0
bin	0.2	0
bin	0.22	0
bin	0.24	0
bin	0.26	0
bin	0.28	0
bin	0.3	0
bin	0.32	0
bin	0.34	0
bin	0.36	0
bin	0.38	0
bin	0.4	0
bin	0.42	0
bin	0.44	0
bin	0.46	0
bin	0.48	0
bin	0.5	0
bin	0.52	0
bin	0.54	0
bin	0.56	0
bin	0.58	0
bin	0.6	0
bin	0.62	0
bin	0.64	0
bin	0.66	0
bin	0.68	0
bin	0.7	0
bin	0.72	0
bin	0.74	0
bin	0.76	0
bin	0.78	0
bin	0.8	0
bin	0.82	0
bin	0.84	0
bin	0.86	0
bin	0.88	0
bin	0.9	0
bin	0.92	0
bin	0.94	0
bin	0.96	0
bin	0.98	2
bin	1	0
statistic WiredAndWirelessHostsWithAP.wirelessHost[0].wlan[0].radio bitErrorRate:histogram
field count 0
field mean -nan
field stddev nan
field min nan
field max nan
field sum 0
field sqrsum 0
attr source bitErrorRate(packetSentToUpper)
attr title "Bit error rate, histogram"
bin	-inf	0
bin	0	0
bin	1	0
statistic WiredAndWirelessHostsWithAP.wirelessHost[0].wlan[0].radio symbolErrorRate:histogram
field count 0
field mean -nan
field stddev nan
field min nan
field max nan
field sum 0
field sqrsum 0
attr source symbolErrorRate(packetSentToUpper)
attr title "Symbol error rate, histogram"
bin	-inf	0
bin	0	0
bin	1	0
scalar WiredAndWirelessHostsWithAP.wirelessHost[0].ipv4.ip packetDropAddressResolutionFailed:count 0
attr interpolationmode none
attr source packetDropReasonIsAddressResolutionFailed(packetDropped)
attr title "packet drop: address resolution failed, count"
scalar WiredAndWirelessHostsWithAP.wirelessHost[0].ipv4.ip packetDropAddressResolutionFailed:sum(packetBytes) 0
attr interpolationmode none
attr source packetDropReasonIsAddressResolutionFailed(packetDropped)
attr title "packet drop: address resolution failed, sum(packetBytes)"
scalar WiredAndWirelessHostsWithAP.wirelessHost[0].ipv4.ip packetDropHopLimitReached:count 0
attr interpolationmode none
attr source packetDropReasonIsHopLimitReached(packetDropped)
attr title "packet drop: hop limit reached, count"
scalar WiredAndWirelessHostsWithAP.wirelessHost[0].ipv4.ip packetDropHopLimitReached:sum(packetBytes) 0
attr interpolationmode none
attr source packetDropReasonIsHopLimitReached(packetDropped)
attr title "packet drop: hop limit reached, sum(packetBytes)"
scalar WiredAndWirelessHostsWithAP.wirelessHost[0].ipv4.ip packetDropForwardingDisabled:count 0
attr interpolationmode none
attr source packetDropReasonIsForwardingDisabled(packetDropped)
attr title "packet drop: forwarding disabled, count"
scalar WiredAndWirelessHostsWithAP.wirelessHost[0].ipv4.ip packetDropForwardingDisabled:sum(packetBytes) 0
attr interpolationmode none
attr source packetDropReasonIsForwardingDisabled(packetDropped)
attr title "packet drop: forwarding disabled, sum(packetBytes)"
scalar WiredAndWirelessHostsWithAP.wirelessHost[0].ipv4.ip packetDropNoInterfaceFound:count 0
attr interpolationmode none
attr source packetDropReasonIsNoInterfaceFound(packetDropped)
attr title "packet drop: no interface found, count"
scalar WiredAndWirelessHostsWithAP.wirelessHost[0].ipv4.ip packetDropNoInterfaceFound:sum(packetBytes) 0
attr interpolationmode none
attr source packetDropReasonIsNoInterfaceFound(packetDropped)
attr title "packet drop: no interface found, sum(packetBytes)"
scalar WiredAndWirelessHostsWithAP.wirelessHost[0].ipv4.ip packetDropNoRouteFound:count 0
attr interpolationmode none
attr source packetDropReasonIsNoRouteFound(packetDropped)
attr title "packet drop: no route found, count"
scalar WiredAndWirelessHostsWithAP.wirelessHost[0].ipv4.ip packetDropNoRouteFound:sum(packetBytes) 0
attr interpolationmode none
attr source packetDropReasonIsNoRouteFound(packetDropped)
attr title "packet drop: no route found, sum(packetBytes)"
scalar WiredAndWirelessHostsWithAP.wirelessHost[0].ipv4.ip packetDropUndefined:count 0
attr interpolationmode none
attr source packetDropReasonIsUndefined(packetDropped)
attr title "packet drop: undefined, count"
scalar WiredAndWirelessHostsWithAP.wirelessHost[0].ipv4.ip packetDropUndefined:sum(packetBytes) 0
attr interpolationmode none
attr source packetDropReasonIsUndefined(packetDropped)
attr title "packet drop: undefined, sum(packetBytes)"
scalar WiredAndWirelessHostsWithAP.wirelessHost[0].ipv4.arp arpResolutionFailed:count 0
attr title "ARP failed resolutions, count"
scalar WiredAndWirelessHostsWithAP.wirelessHost[0].ipv4.arp arpResolutionCompleted:count 1
attr title "ARP completed resolutions, count"
scalar WiredAndWirelessHostsWithAP.wirelessHost[0].ipv4.arp arpResolutionInitiated:count 1
attr title "ARP initiated resolutions, count"
scalar WiredAndWirelessHostsWithAP.wirelessHost[0].ipv4.arp arpReplySent:count 0
attr source arpReplySent
attr title "ARP replies sent, count"
scalar WiredAndWirelessHostsWithAP.wirelessHost[0].ipv4.arp arpReplySent:sum(packetBytes) 0
attr source arpReplySent
attr title "ARP replies sent, sum(packetBytes)"
scalar WiredAndWirelessHostsWithAP.wirelessHost[0].ipv4.arp arpRequestSent:count 1
attr source arpRequestSent
attr title "ARP request sent, count"
scalar WiredAndWirelessHostsWithAP.wirelessHost[0].ipv4.arp arpRequestSent:sum(packetBytes) 28
attr source arpRequestSent
attr title "ARP request sent, sum(packetBytes)"
scalar WiredAndWirelessHostsWithAP.wirelessHost[0].udp packetReceived:count 0
attr interpolationmode none
attr source packetReceived
attr title "packets received, count"
scalar WiredAndWirelessHostsWithAP.wirelessHost[0].udp packetReceived:sum(packetBytes) 0
attr interpolationmode none
attr source packetReceived
attr title "packets received, sum(packetBytes)"
scalar WiredAndWirelessHostsWithAP.wirelessHost[0].udp packetSent:count 40
attr interpolationmode none
attr source packetSent
attr title "packets sent, count"
scalar WiredAndWirelessHostsWithAP.wirelessHost[0].udp packetSent:sum(packetBytes) 4320
attr interpolationmode none
attr source packetSent
attr title "packets sent, sum(packetBytes)"
scalar WiredAndWirelessHostsWithAP.wirelessHost[0].udp passedUpPk:count 0
attr interpolationmode none
attr source packetSentToUpper
attr title "packets passed up, count"
scalar WiredAndWirelessHostsWithAP.wirelessHost[0].udp droppedPkWrongPort:count 0
attr interpolationmode none
attr source packetDropReasonIsNoPortFound(packetDropped)
attr title "packets dropped (wrong port), count"
scalar WiredAndWirelessHostsWithAP.wirelessHost[0].udp droppedPkBadChecksum:count 0
attr interpolationmode none
attr source packetDropReasonIsIncorrectlyReceived(packetDropped)
attr title "packets dropped (checksum error), count"
scalar WiredAndWirelessHostsWithAP.wirelessHost[0].app[0] "packets sent" 40
scalar WiredAndWirelessHostsWithAP.wirelessHost[0].app[0] "packets received" 0
scalar WiredAndWirelessHostsWithAP.wirelessHost[0].app[0] packetReceived:count 0
attr interpolationmode none
attr source packetReceived
attr title "packets received, count"
scalar WiredAndWirelessHostsWithAP.wirelessHost[0].app[0] packetReceived:sum(packetBytes) 0
attr interpolationmode none
attr source packetReceived
attr title "packets received, sum(packetBytes)"
statistic WiredAndWirelessHostsWithAP.wirelessHost[0].app[0] rcvdPkLifetime:stats
field count 0
field mean -nan
field stddev nan
field min nan
field max nan
field sum 0
field sqrsum 0
attr interpolationmode none
attr source dataAge(packetReceived)
attr title "received packet lifetime, stats"
attr unit s
scalar WiredAndWirelessHostsWithAP.wirelessHost[0].app[0] packetSent:count 40
attr interpolationmode none
attr source packetSent
attr title "packets sent, count"
scalar WiredAndWirelessHostsWithAP.wirelessHost[0].app[0] packetSent:sum(packetBytes) 4000
attr interpolationmode none
attr source packetSent
attr title "packets sent, sum(packetBytes)"
scalar WiredAndWirelessHostsWithAP.wirelessHost[1].lo[0].lo rcvdPkFromHl:count 0
attr interpolationmode none
attr source packetReceivedFromUpper
attr title "packets received from higher layer, count"
scalar WiredAndWirelessHostsWithAP.wirelessHost[1].lo[0].lo rcvdPkFromHl:sum(packetBytes) 0
attr interpolationmode none
attr source packetReceivedFromUpper
attr title "packets received from higher layer, sum(packetBytes)"
scalar WiredAndWirelessHostsWithAP.wirelessHost[1].lo[0].lo passedUpPk:count 0
attr interpolationmode none
attr source packetSentToUpper
attr title "packets passed to higher layer, count"
scalar WiredAndWirelessHostsWithAP.wirelessHost[1].lo[0].lo passedUpPk:sum(packetBytes) 0
attr interpolationmode none
attr source packetSentToUpper
attr title "packets passed to higher layer, sum(packetBytes)"
scalar WiredAndWirelessHostsWithAP.wirelessHost[1].wlan[0].agent dropConfirm:count 0
attr title "dropped confirms, count"
scalar WiredAndWirelessHostsWithAP.wirelessHost[1].wlan[0].agent acceptConfirm:count 3
attr title "accepted confirms, count"
scalar WiredAndWirelessHostsWithAP.wirelessHost[1].wlan[0].agent sentRequest:count 3
attr title "sent requests, count"
scalar WiredAndWirelessHostsWithAP.wirelessHost[1].wlan[0].mac.dcf.channelAccess.pendingQueue packetPopped:count 45
attr interpolationmode none
attr title "packet popped, count"
scalar WiredAndWirelessHostsWithAP.wirelessHost[1].wlan[0].mac.dcf.channelAccess.pendingQueue packetPopped:sum(packetBytes) 6760
attr interpolationmode none
attr title "packet popped, sum(packetBytes)"
statistic WiredAndWirelessHostsWithAP.wirelessHost[1].wlan[0].mac.dcf.channelAccess.pendingQueue queueingTime:histogram
field count 45
field mean 3.8377523155556e-05
field stddev 0.00018780354355545
field min 0
field max 0.001218988542
field sum 0.001726988542
field sqrsum 1.6181650655273e-06
attr interpolationmode none
attr source queueingTime(packetPopped)
attr title "queueing times, histogram"
attr unit s
bin	-inf	0
bin	0	42
bin	2e-05	0
bin	4e-05	0
bin	6e-05	0
bin	8e-05	0
bin	0.0001	0
bin	0.00012	0
bin	0.00014	0
bin	0.00016	0
bin	0.00018	0
bin	0.0002	1
bin	0.00022	0
bin	0.00024	0
bin	0.00026	0
bin	0.00028	1
bin	0.0003	0
bin	0.00032	0
bin	0.00034	0
bin	0.00036	0
bin	0.00038	0
bin	0.0004	0
bin	0.00042	0
bin	0.00044	0
bin	0.00046	0
bin	0.00048	0
bin	0.0005	0
bin	0.00052	0
bin	0.00054	0
bin	0.00056	0
bin	0.00058	0
bin	0.0006	0
bin	0.00062	0
bin	0.00064	0
bin	0.00066	0
bin	0.00068	0
bin	0.0007	0
bin	0.00072	0
bin	0.00074	0
bin	0.00076	0
bin	0.00078	0
bin	0.0008	0
bin	0.00082	0
bin	0.00084	0
bin	0.00086	0
bin	0.00088	0
bin	0.0009	0
bin	0.00092	0
bin	0.00094	0
bin	0.00096	0
bin	0.00098	0
bin	0.001	0
bin	0.00102	0
bin	0.00104	0
bin	0.00106	0
bin	0.00108	0
bin	0.0011	0
bin	0.00112	0
bin	0.00114	0
bin	0.00116	0
bin	0.00118	0
bin	0.0012	1
bin	0.00122	0
bin	0.00124	0
bin	0.00126	0
bin	0.00128	0
bin	0.0013	0
bin	0.00132	0
bin	0.00134	0
bin	0.00136	0
bin	0.00138	0
bin	0.0014	0
bin	0.00142	0
bin	0.00144	0
bin	0.00146	0
bin	0.00148	0
bin	0.0015	0
bin	0.00152	0
bin	0.00154	0
scalar WiredAndWirelessHostsWithAP.wirelessHost[1].wlan[0].mac.dcf.channelAccess.pendingQueue queueLength:max 1
attr interpolationmode sample-hold
attr source "count(packetPushed) - count(packetPopped) - count(packetRemoved) - count(packetDropped)"
attr title "queue length, max"
scalar WiredAndWirelessHostsWithAP.wirelessHost[1].wlan[0].mac.dcf.channelAccess.pendingQueue queueLength:timeavg 4.3329200657297e-05
attr interpolationmode sample-hold
attr source "count(packetPushed) - count(packetPopped) - count(packetRemoved) - count(packetDropped)"
attr title "queue length, timeavg"
scalar WiredAndWirelessHostsWithAP.wirelessHost[1].wlan[0].mac.dcf.channelAccess.pendingQueue packetPushed:count 45
attr interpolationmode none
attr title "packet pushed, count"
scalar WiredAndWirelessHostsWithAP.wirelessHost[1].wlan[0].mac.dcf.channelAccess.pendingQueue packetPushed:sum(packetBytes) 6760
attr interpolationmode none
attr title "packet pushed, sum(packetBytes)"
scalar WiredAndWirelessHostsWithAP.wirelessHost[1].wlan[0].mac.dcf.channelAccess.pendingQueue packetDropQueueOverflow:count 0
attr interpolationmode none
attr source packetDropReasonIsQueueOverflow(packetDropped)
attr title "packet drops: queue overflow, count"
scalar WiredAndWirelessHostsWithAP.wirelessHost[1].wlan[0].mac.dcf.channelAccess.pendingQueue packetDropQueueOverflow:sum(packetBytes) 0
attr interpolationmode none
attr source packetDropReasonIsQueueOverflow(packetDropped)
attr title "packet drops: queue overflow, sum(packetBytes)"
scalar WiredAndWirelessHostsWithAP.wirelessHost[1].wlan[0].mac.dcf.channelAccess.pendingQueue packetRemoved:count 0
attr interpolationmode none
attr title "packets removed, count"
scalar WiredAndWirelessHostsWithAP.wirelessHost[1].wlan[0].mac.dcf.channelAccess.pendingQueue packetRemoved:sum(packetBytes) 0
attr interpolationmode none
attr title "packets removed, sum(packetBytes)"
statistic WiredAndWirelessHostsWithAP.wirelessHost[1].wlan[0].mac.dcf.channelAccess.inProgressFrames queueingTime:histogram
field count 44
field mean 0.0057060317556136
field stddev 0.0026254518835107
field min 3.8e-05
field max 0.010334468292
field sum 0.251065397247
field sqrsum 0.0017289860259102
attr interpolationmode none
attr source queueingTime(packetDequeued)
attr title "queueing times, histogram"
bin	-inf	0
bin	0	4
bin	0.0002	0
bin	0.0004	0
bin	0.0006	0
bin	0.0008	0
bin	0.001	0
bin	0.0012	0
bin	0.0014	0
bin	0.0016	0
bin	0.0018	1
bin	0.002	0
bin	0.0022	0
bin	0.0024	0
bin	0.0026	0
bin	0.0028	0
bin	0.003	0
bin	0.0032	0
bin	0.0034	0
bin	0.0036	6
bin	0.0038	4
bin	0.004	0
bin	0.0042	0
bin	0.0044	0
bin	0.0046	0
bin	0.0048	0
bin	0.005	1
bin	0.0052	0
bin	0.0054	0
bin	0.0056	2
bin	0.0058	7
bin	0.006	1
bin	0.0062	0
bin	0.0064	0
bin	0.0066	0
bin	0.0068	0
bin	0.007	0
bin	0.0072	0
bin	0.0074	0
bin	0.0076	2
bin	0.0078	10
bin	0.008	3
bin	0.0082	1
bin	0.0084	0
bin	0.0086	0
bin	0.0088	0
bin	0.009	0
bin	0.0092	0
bin	0.0094	0
bin	0.0096	0
bin	0.0098	1
bin	0.01	0
bin	0.0102	1
bin	0.0104	0
bin	0.0106	0
bin	0.0108	0
bin	0.011	0
bin	0.0112	0
bin	0.0114	0
bin	0.0116	0
bin	0.0118	0
bin	0.012	0
bin	0.0122	0
bin	0.0124	0
bin	0.0126	0
bin	0.0128	0
bin	0.013	0
scalar WiredAndWirelessHostsWithAP.wirelessHost[1].wlan[0].mac.dcf.channelAccess.inProgressFrames queueLength:max 1
attr interpolationmode sample-hold
attr source "count(packetEnqueued) - count(packetDequeued)"
attr title "queue length, max"
scalar WiredAndWirelessHostsWithAP.wirelessHost[1].wlan[0].mac.dcf.channelAccess.inProgressFrames queueLength:timeavg 0.0062990938913937
attr interpolationmode sample-hold
attr source "count(packetEnqueued) - count(packetDequeued)"
attr title "queue length, timeavg"
scalar WiredAndWirelessHostsWithAP.wirelessHost[1].wlan[0].mac.dcf.channelAccess.contention channelAccessGranted:count 88
attr title "channel access granted, count"
scalar WiredAndWirelessHostsWithAP.wirelessHost[1].wlan[0].mac.dcf.channelAccess.contention stateChanged:count 3138
attr interpolationmode none
attr title "contention state changed, count"
scalar WiredAndWirelessHostsWithAP.wirelessHost[1].wlan[0].mac.dcf.channelAccess channelOwnershipChanged:count 175
attr interpolationmode sample-hold
attr title "channel ownership, count"
scalar WiredAndWirelessHostsWithAP.wirelessHost[1].wlan[0].mac.dcf.originatorMacDataService packetAggregated:count 0
attr title "packets aggregated, count"
scalar WiredAndWirelessHostsWithAP.wirelessHost[1].wlan[0].mac.dcf.originatorMacDataService packetFragmented:count 0
attr title "packets fragmented, count"
scalar WiredAndWirelessHostsWithAP.wirelessHost[1].wlan[0].mac.dcf.recipientMacDataService packetDeaggregated:count 0
attr title "packets deaggregated, count"
scalar WiredAndWirelessHostsWithAP.wirelessHost[1].wlan[0].mac.dcf.recipientMacDataService packetDefragmented:count 410
attr title "packets defragmented, count"
scalar WiredAndWirelessHostsWithAP.wirelessHost[1].wlan[0].mac.dcf.recipientMacDataService packetDropDuplicateDetected:count 0
attr interpolationmode none
attr source packetDropReasonIsDuplicateDetected(packetDropped)
attr title "packet drops: duplicate detected, count"
scalar WiredAndWirelessHostsWithAP.wirelessHost[1].wlan[0].mac.dcf.recipientMacDataService packetDropDuplicateDetected:sum(packetBytes) 0
attr interpolationmode none
attr source packetDropReasonIsDuplicateDetected(packetDropped)
attr title "packet drops: duplicate detected, sum(packetBytes)"
scalar WiredAndWirelessHostsWithAP.wirelessHost[1].wlan[0].mac.dcf.recoveryProcedure retryLimitReached:count 0
attr title "retry limit reached, count"
scalar WiredAndWirelessHostsWithAP.wirelessHost[1].wlan[0].mac.dcf frameSequenceFinished:count 87
attr title "finished frame sequences, count"
statistic WiredAndWirelessHostsWithAP.wirelessHost[1].wlan[0].mac.dcf frameSequenceDuration:histogram
field count 87
field mean 0.0016744426127126
field stddev 0.00037593685276421
field min 3.8e-05
field max 0.001818988542
field sum 0.145676507306
field sqrsum 0.00025608120398921
attr source frameSequenceDuration(frameSequenceFinished)
attr title "frame sequence durations, histogram"
bin	-inf	0
bin	0	1
bin	5e-05	3
bin	0.0001	0
bin	0.00015	0
bin	0.0002	0
bin	0.00025	0
bin	0.0003	0
bin	0.00035	0
bin	0.0004	0
bin	0.00045	0
bin	0.0005	0
bin	0.00055	0
bin	0.0006	0
bin	0.00065	0
bin	0.0007	0
bin	0.00075	0
bin	0.0008	0
bin	0.00085	0
bin	0.0009	1
bin	0.00095	0
bin	0.001	1
bin	0.00105	0
bin	0.0011	0
bin	0.00115	0
bin	0.0012	0
bin	0.00125	0
bin	0.0013	0
bin	0.00135	0
bin	0.0014	0
bin	0.00145	0
bin	0.0015	0
bin	0.00155	0
bin	0.0016	0
bin	0.00165	0
bin	0.0017	42
bin	0.00175	0
bin	0.0018	39
bin	0.00185	0
bin	0.0019	0
bin	0.00195	0
bin	0.002	0
bin	0.00205	0
bin	0.0021	0
bin	0.00215	0
bin	0.0022	0
bin	0.00225	0
bin	0.0023	0
statistic WiredAndWirelessHostsWithAP.wirelessHost[1].wlan[0].mac.dcf frameSequenceNumPackets:histogram
field count 87
field mean 1.9885057471264
field stddev 0.10721125348378
field min 1
field max 2
field sum 173
field sqrsum 345
attr source frameSequenceNumPackets(frameSequenceFinished)
attr title "frame sequences: number of packets, histogram"
bin	-inf	0
bin	0	0
bin	1	1
bin	2	86
bin	3	0
scalar WiredAndWirelessHostsWithAP.wirelessHost[1].wlan[0].mac.dcf packetReceivedFromPeer:count 453
attr interpolationmode none
attr title "packets received, count"
scalar WiredAndWirelessHostsWithAP.wirelessHost[1].wlan[0].mac.dcf packetReceivedFromPeer:sum(packetBytes) 20310
attr interpolationmode none
attr title "packets received, sum(packetBytes)"
scalar WiredAndWirelessHostsWithAP.wirelessHost[1].wlan[0].mac.dcf packetReceivedFromPeerUnicast:count 48
attr interpolationmode none
attr source ieee80211Unicast(packetReceivedFromPeer)
attr title "packets received: unicast, count"
scalar WiredAndWirelessHostsWithAP.wirelessHost[1].wlan[0].mac.dcf packetReceivedFromPeerUnicast:sum(packetBytes) 836
attr interpolationmode none
attr source ieee80211Unicast(packetReceivedFromPeer)
attr title "packets received: unicast, sum(packetBytes)"
scalar WiredAndWirelessHostsWithAP.wirelessHost[1].wlan[0].mac.dcf packetReceivedFromPeerMulticast:count 405
attr interpolationmode none
attr source ieee80211Multicast(packetReceivedFromPeer)
attr title "packets received: multicast, count"
scalar WiredAndWirelessHostsWithAP.wirelessHost[1].wlan[0].mac.dcf packetReceivedFromPeerMulticast:sum(packetBytes) 19474
attr interpolationmode none
attr source ieee80211Multicast(packetReceivedFromPeer)
attr title "packets received: multicast, sum(packetBytes)"
scalar WiredAndWirelessHostsWithAP.wirelessHost[1].wlan[0].mac.dcf packetReceivedFromPeerBroadcast:count 405
attr interpolationmode none
attr source ieee80211Broadcast(packetReceivedFromPeer)
attr title "packets received: broadcast, count"
scalar WiredAndWirelessHostsWithAP.wirelessHost[1].wlan[0].mac.dcf packetReceivedFromPeerBroadcast:sum(packetBytes) 19474
attr interpolationmode none
attr source ieee80211Broadcast(packetReceivedFromPeer)
attr title "packets received: broadcast, sum(packetBytes)"
scalar WiredAndWirelessHostsWithAP.wirelessHost[1].wlan[0].mac.dcf packetReceivedFromPeerWithRetry:count 2
attr interpolationmode none
attr source ieee80211Retry(packetReceivedFromPeer)
attr title "packets received: with retry, count"
scalar WiredAndWirelessHostsWithAP.wirelessHost[1].wlan[0].mac.dcf packetReceivedFromPeerWithRetry:sum(packetBytes) 128
attr interpolationmode none
attr source ieee80211Retry(packetReceivedFromPeer)
attr title "packets received: with retry, sum(packetBytes)"
scalar WiredAndWirelessHostsWithAP.wirelessHost[1].wlan[0].mac.dcf packetReceivedFromPeerWithoutRetry:count 451
attr interpolationmode none
attr source ieee80211NotRetry(packetReceivedFromPeer)
attr title "packets received: without retry, count"
scalar WiredAndWirelessHostsWithAP.wirelessHost[1].wlan[0].mac.dcf packetReceivedFromPeerWithoutRetry:sum(packetBytes) 20182
attr interpolationmode none
attr source ieee80211NotRetry(packetReceivedFromPeer)
attr title "packets received: without retry, sum(packetBytes)"
scalar WiredAndWirelessHostsWithAP.wirelessHost[1].wlan[0].mac.dcf packetSentToPeer:count 92
attr interpolationmode none
attr title "packets sent, count"
scalar WiredAndWirelessHostsWithAP.wirelessHost[1].wlan[0].mac.dcf packetSentToPeer:sum(packetBytes) 13618
attr interpolationmode none
attr title "packets sent, sum(packetBytes)"
scalar WiredAndWirelessHostsWithAP.wirelessHost[1].wlan[0].mac.dcf packetSentToPeerUnicast:count 91
attr interpolationmode none
attr source ieee80211Unicast(packetSentToPeer)
attr title "packets sent: unicast, count"
scalar WiredAndWirelessHostsWithAP.wirelessHost[1].wlan[0].mac.dcf packetSentToPeerUnicast:sum(packetBytes) 13586
attr interpolationmode none
attr source ieee80211Unicast(packetSentToPeer)
attr title "packets sent: unicast, sum(packetBytes)"
scalar WiredAndWirelessHostsWithAP.wirelessHost[1].wlan[0].mac.dcf packetSentToPeerMulticast:count 1
attr interpolationmode none
attr source ieee80211Multicast(packetSentToPeer)
attr title "packets sent: multicast, count"
scalar WiredAndWirelessHostsWithAP.wirelessHost[1].wlan[0].mac.dcf packetSentToPeerMulticast:sum(packetBytes) 32
attr interpolationmode none
attr source ieee80211Multicast(packetSentToPeer)
attr title "packets sent: multicast, sum(packetBytes)"
scalar WiredAndWirelessHostsWithAP.wirelessHost[1].wlan[0].mac.dcf packetSentToPeerBroadcast:count 1
attr interpolationmode none
attr source ieee80211Broadcast(packetSentToPeer)
attr title "packets sent: broadcast , count"
scalar WiredAndWirelessHostsWithAP.wirelessHost[1].wlan[0].mac.dcf packetSentToPeerBroadcast:sum(packetBytes) 32
attr interpolationmode none
attr source ieee80211Broadcast(packetSentToPeer)
attr title "packets sent: broadcast , sum(packetBytes)"
scalar WiredAndWirelessHostsWithAP.wirelessHost[1].wlan[0].mac.dcf packetSentToPeerWithRetry:count 43
attr interpolationmode none
attr source ieee80211Retry(packetSentToPeer)
attr title "packets sent: with retry, count"
scalar WiredAndWirelessHostsWithAP.wirelessHost[1].wlan[0].mac.dcf packetSentToPeerWithRetry:sum(packetBytes) 6952
attr interpolationmode none
attr source ieee80211Retry(packetSentToPeer)
attr title "packets sent: with retry, sum(packetBytes)"
scalar WiredAndWirelessHostsWithAP.wirelessHost[1].wlan[0].mac.dcf packetSentToPeerWithoutRetry:count 49
attr interpolationmode none
attr source ieee80211NotRetry(packetSentToPeer)
attr title "packets sent: without retry, count"
scalar WiredAndWirelessHostsWithAP.wirelessHost[1].wlan[0].mac.dcf packetSentToPeerWithoutRetry:sum(packetBytes) 6666
attr interpolationmode none
attr source ieee80211NotRetry(packetSentToPeer)
attr title "packets sent: without retry, sum(packetBytes)"
scalar WiredAndWirelessHostsWithAP.wirelessHost[1].wlan[0].mac.dcf packetDrop:count 192
attr interpolationmode none
attr source packetDropped
attr title "packet drops, count"
scalar WiredAndWirelessHostsWithAP.wirelessHost[1].wlan[0].mac.dcf packetDrop:sum(packetBytes) 14840
attr interpolationmode none
attr source packetDropped
attr title "packet drops, sum(packetBytes)"
scalar WiredAndWirelessHostsWithAP.wirelessHost[1].wlan[0].mac.dcf packetDropNotAddressedToUs:count 192
attr interpolationmode none
attr source packetDropReasonIsNotAddressedToUs(packetDropped)
attr title "packet drops: not addressed to us, count"
scalar WiredAndWirelessHostsWithAP.wirelessHost[1].wlan[0].mac.dcf packetDropNotAddressedToUs:sum(packetBytes) 14840
attr interpolationmode none
attr source packetDropReasonIsNotAddressedToUs(packetDropped)
attr title "packet drops: not addressed to us, sum(packetBytes)"
scalar WiredAndWirelessHostsWithAP.wirelessHost[1].wlan[0].mac.dcf packetDropQueueOverflow:count 0
attr interpolationmode none
attr source packetDropReasonIsQueueOverflow(packetDropped)
attr title "packet drops: queue overflow, count"
scalar WiredAndWirelessHostsWithAP.wirelessHost[1].wlan[0].mac.dcf packetDropQueueOverflow:sum(packetBytes) 0
attr interpolationmode none
attr source packetDropReasonIsQueueOverflow(packetDropped)
attr title "packet drops: queue overflow, sum(packetBytes)"
scalar WiredAndWirelessHostsWithAP.wirelessHost[1].wlan[0].mac.dcf packetDropRetryLimitReached:count 0
attr interpolationmode none
attr source packetDropReasonIsRetryLimitReached(packetDropped)
attr title "packet drops: retry limit reached, count"
scalar WiredAndWirelessHostsWithAP.wirelessHost[1].wlan[0].mac.dcf packetDropRetryLimitReached:sum(packetBytes) 0
attr interpolationmode none
attr source packetDropReasonIsRetryLimitReached(packetDropped)
attr title "packet drops: retry limit reached, sum(packetBytes)"
scalar WiredAndWirelessHostsWithAP.wirelessHost[1].wlan[0].mac.dcf linkBroken:count 0
attr interpolationmode none
attr title "link breaks, count"
scalar WiredAndWirelessHostsWithAP.wirelessHost[1].wlan[0].mac packetReceivedFromLower:count 646
attr interpolationmode none
attr title "packets received from lower layer, count"
scalar WiredAndWirelessHostsWithAP.wirelessHost[1].wlan[0].mac packetReceivedFromLower:sum(packetBytes) 35314
attr interpolationmode none
attr title "packets received from lower layer, sum(packetBytes)"
scalar WiredAndWirelessHostsWithAP.wirelessHost[1].wlan[0].mac packetSentToLower:count 93
attr interpolationmode none
attr title "packets sent to lower layer, count"
scalar WiredAndWirelessHostsWithAP.wirelessHost[1].wlan[0].mac packetSentToLower:sum(packetBytes) 13782
attr interpolationmode none
attr title "packets sent to lower layer, sum(packetBytes)"
scalar WiredAndWirelessHostsWithAP.wirelessHost[1].wlan[0].mac packetReceivedFromUpper:count 41
attr interpolationmode none
attr title "packets received from upper layer, count"
scalar WiredAndWirelessHostsWithAP.wirelessHost[1].wlan[0].mac packetReceivedFromUpper:sum(packetBytes) 5476
attr interpolationmode none
attr title "packets received from upper layer, sum(packetBytes)"
scalar WiredAndWirelessHostsWithAP.wirelessHost[1].wlan[0].mac packetSentToUpper:count 4
attr interpolationmode none
attr title "packets sent to upper layer, count"
scalar WiredAndWirelessHostsWithAP.wirelessHost[1].wlan[0].mac packetSentToUpper:sum(packetBytes) 180
attr interpolationmode none
attr title "packets sent to upper layer, sum(packetBytes)"
scalar WiredAndWirelessHostsWithAP.wirelessHost[1].wlan[0].mac packetDrop:count 193
attr interpolationmode none
attr source packetDropped
attr title "packet drops, count"
scalar WiredAndWirelessHostsWithAP.wirelessHost[1].wlan[0].mac packetDrop:sum(packetBytes) 15004
attr interpolationmode none
attr source packetDropped
attr title "packet drops, sum(packetBytes)"
scalar WiredAndWirelessHostsWithAP.wirelessHost[1].wlan[0].mac packetDropIncorrectlyReceived:count 1
attr interpolationmode none
attr source packetDropReasonIsIncorrectlyReceived(packetDropped)
attr title "packet drops: incorrectly received, count"
scalar WiredAndWirelessHostsWithAP.wirelessHost[1].wlan[0].mac packetDropIncorrectlyReceived:sum(packetBytes) 164
attr interpolationmode none
attr source packetDropReasonIsIncorrectlyReceived(packetDropped)
attr title "packet drops: incorrectly received, sum(packetBytes)"
scalar WiredAndWirelessHostsWithAP.wirelessHost[1].wlan[0].mac packetDropNotAddressedToUs:count 192
attr interpolationmode none
attr source packetDropReasonIsNotAddressedToUs(packetDropped)
attr title "packet drops: not addressed to us, count"
scalar WiredAndWirelessHostsWithAP.wirelessHost[1].wlan[0].mac packetDropNotAddressedToUs:sum(packetBytes) 14840
attr interpolationmode none
attr source packetDropReasonIsNotAddressedToUs(packetDropped)
attr title "packet drops: not addressed to us, sum(packetBytes)"
scalar WiredAndWirelessHostsWithAP.wirelessHost[1].wlan[0].mac packetDropQueueOverflow:count 0
attr interpolationmode none
attr source packetDropReasonIsQueueOverflow(packetDropped)
attr title "packet drops: queue overflow, count"
scalar WiredAndWirelessHostsWithAP.wirelessHost[1].wlan[0].mac packetDropQueueOverflow:sum(packetBytes) 0
attr interpolationmode none
attr source packetDropReasonIsQueueOverflow(packetDropped)
attr title "packet drops: queue overflow, sum(packetBytes)"
scalar WiredAndWirelessHostsWithAP.wirelessHost[1].wlan[0].mac packetDropRetryLimitReached:count 0
attr interpolationmode none
attr source packetDropReasonIsRetryLimitReached(packetDropped)
attr title "packet drops: retry limit reached, count"
scalar WiredAndWirelessHostsWithAP.wirelessHost[1].wlan[0].mac packetDropRetryLimitReached:sum(packetBytes) 0
attr interpolationmode none
attr source packetDropReasonIsRetryLimitReached(packetDropped)
attr title "packet drops: retry limit reached, sum(packetBytes)"
scalar WiredAndWirelessHostsWithAP.wirelessHost[1].wlan[0].mac packetDropDuplicateDetected:count 0
attr interpolationmode none
attr source packetDropReasonIsDuplicateDetected(packetDropped)
attr title "packet drops: duplicate detected, count"
scalar WiredAndWirelessHostsWithAP.wirelessHost[1].wlan[0].mac packetDropDuplicateDetected:sum(packetBytes) 0
attr interpolationmode none
attr source packetDropReasonIsDuplicateDetected(packetDropped)
attr title "packet drops: duplicate detected, sum(packetBytes)"
scalar WiredAndWirelessHostsWithAP.wirelessHost[1].wlan[0].mac packetDropOther:count 0
attr interpolationmode none
attr source packetDropReasonIsOther(packetDropped)
attr title "packet drops: other, count"
scalar WiredAndWirelessHostsWithAP.wirelessHost[1].wlan[0].mac packetDropOther:sum(packetBytes) 0
attr interpolationmode none
attr source packetDropReasonIsOther(packetDropped)
attr title "packet drops: other, sum(packetBytes)"
scalar WiredAndWirelessHostsWithAP.wirelessHost[1].wlan[0].mac linkBroken:count 0
attr interpolationmode none
attr title "link breaks, count"
statistic WiredAndWirelessHostsWithAP.wirelessHost[1].wlan[0].radio radioChannel:histogram
field count 4
field mean 0
field stddev 0
field min 0
field max 0
field sum 0
field sqrsum 0
attr interpolationmode sample-hold
attr source radioChannelChanged
attr title "Radio channel, histogram"
bin	-inf	0
bin	-0.5	0
bin	-0.48	0
bin	-0.46	0
bin	-0.44	0
bin	-0.42	0
bin	-0.4	0
bin	-0.38	0
bin	-0.36	0
bin	-0.34	0
bin	-0.32	0
bin	-0.3	0
bin	-0.28	0
bin	-0.26	0
bin	-0.24	0
bin	-0.22	0
bin	-0.2	0
bin	-0.18	0
bin	-0.16	0
bin	-0.14	0
bin	-0.12	0
bin	-0.1	0
bin	-0.08	0
bin	-0.06	0
bin	-0.04	0
bin	-0.02	0
bin	0	4
bin	0.02	0
bin	0.04	0
bin	0.06	0
bin	0.08	0
bin	0.1	0
bin	0.12	0
bin	0.14	0
bin	0.16	0
bin	0.18	0
bin	0.2	0
bin	0.22	0
bin	0.24	0
bin	0.26	0
bin	0.28	0
bin	0.3	0
bin	0.32	0
bin	0.34	0
bin	0.36	0
bin	0.38	0
bin	0.4	0
bin	0.42	0
bin	0.44	0
bin	0.46	0
bin	0.48	0
bin	0.5	0
scalar WiredAndWirelessHostsWithAP.wirelessHost[1].wlan[0].radio radioMode:count 188
attr interpolationmode sample-hold
attr source radioModeChanged
attr title "Radio mode, count"
scalar WiredAndWirelessHostsWithAP.wirelessHost[1].wlan[0].radio receptionState:count 1522
attr interpolationmode sample-hold
attr source receptionStateChanged
attr title "Radio reception state, count"
scalar WiredAndWirelessHostsWithAP.wirelessHost[1].wlan[0].radio transmissionState:count 370
attr interpolationmode sample-hold
attr source transmissionStateChanged
attr title "Radio transmission state, count"
statistic WiredAndWirelessHostsWithAP.wirelessHost[1].wlan[0].radio minSnir:histogram
field count 646
field mean 88.438561255831
field stddev 20.30941737956
field min 0.24379544215733
field max 136.52154367555
field sum 57131.310571267
field sqrsum 5318655.6297045
attr source minimumSnir(packetSentToUpper)
attr title "Min SNIR, histogram"
bin	-inf	0
bin	0	1
bin	2	0
bin	4	0
bin	6	0
bin	8	0
bin	10	0
bin	12	0
bin	14	0
bin	16	0
bin	18	0
bin	20	0
bin	22	0
bin	24	0
bin	26	0
bin	28	0
bin	30	0
bin	32	48
bin	34	0
bin	36	0
bin	38	0
bin	40	0
bin	42	0
bin	44	0
bin	46	0
bin	48	0
bin	50	0
bin	52	0
bin	54	0
bin	56	0
bin	58	0
bin	60	0
bin	62	0
bin	64	0
bin	66	0
bin	68	0
bin	70	0
bin	72	0
bin	74	0
bin	76	0
bin	78	0
bin	80	0
bin	82	0
bin	84	0
bin	86	0
bin	88	548
bin	90	0
bin	92	0
bin	94	0
bin	96	0
bin	98	0
bin	100	0
bin	102	0
bin	104	0
bin	106	0
bin	108	0
bin	110	0
bin	112	0
bin	114	0
bin	116	0
bin	118	0
bin	120	0
bin	122	0
bin	124	0
bin	126	0
bin	128	0
bin	130	0
bin	132	0
bin	134	0
bin	136	49
bin	138	0
bin	140	0
bin	142	0
bin	144	0
bin	146	0
bin	148	0
bin	150	0
bin	152	0
bin	154	0
bin	156	0
bin	158	0
bin	160	0
bin	162	0
bin	164	0
statistic WiredAndWirelessHostsWithAP.wirelessHost[1].wlan[0].radio packetErrorRate:histogram
field count 646
field mean 0.0015479876161127
field stddev 0.039344473768231
field min 0
field max 1
field sum 1.0000000000088
field sqrsum 1
attr source packetErrorRate(packetSentToUpper)
attr title "Packet error rate, histogram"
bin	-inf	0
bin	0	645
bin	0.02	0
bin	0.04	0
bin	0.06	0
bin	0.08	0
bin	0.1	0
bin	0.12	0
bin	0.14	0
bin	0.16	0
bin	0.18	0
bin	0.2	0
bin	0.22	0
bin	0.24	0
bin	0.26	0
bin	0.28	0
bin	0.3	0
bin	0.32	0
bin	0.34	0
bin	0.36	0
bin	0.38	0
bin	0.4	0
bin	0.42	0
bin	0.44	0
bin	0.46	0
bin	0.48	0
bin	0.5	0
bin	0.52	0
bin	0.54	0
bin	0.56	0
bin	0.58	0
bin	0.6	0
bin	0.62	0
bin	0.64	0
bin	0.66	0
bin	0.68	0
bin	0.7	0
bin	0.72	0
bin	0.74	0
bin	0.76	0
bin	0.78	0
bin	0.8	0
bin	0.82	0
bin	0.84	0
bin	0.86	0
bin	0.88	0
bin	0.9	0
bin	0.92	0
bin	0.94	0
bin	0.96	0
bin	0.98	0
bin	1	1
bin	1.02	0
statistic WiredAndWirelessHostsWithAP.wirelessHost[1].wlan[0].radio bitErrorRate:histogram
field count 0
field mean -nan
field stddev nan
field min nan
field max nan
field sum 0
field sqrsum 0
attr source bitErrorRate(packetSentToUpper)
attr title "Bit error rate, histogram"
bin	-inf	0
bin	0	0
bin	1	0
statistic WiredAndWirelessHostsWithAP.wirelessHost[1].wlan[0].radio symbolErrorRate:histogram
field count 0
field mean -nan
field stddev nan
field min nan
field max nan
field sum 0
field sqrsum 0
attr source symbolErrorRate(packetSentToUpper)
attr title "Symbol error rate, histogram"
bin	-inf	0
bin	0	0
bin	1	0
scalar WiredAndWirelessHostsWithAP.wirelessHost[1].ipv4.ip packetDropAddressResolutionFailed:count 0
attr interpolationmode none
attr source packetDropReasonIsAddressResolutionFailed(packetDropped)
attr title "packet drop: address resolution failed, count"
scalar WiredAndWirelessHostsWithAP.wirelessHost[1].ipv4.ip packetDropAddressResolutionFailed:sum(packetBytes) 0
attr interpolationmode none
attr source packetDropReasonIsAddressResolutionFailed(packetDropped)
attr title "packet drop: address resolution failed, sum(packetBytes)"
scalar WiredAndWirelessHostsWithAP.wirelessHost[1].ipv4.ip packetDropHopLimitReached:count 0
attr interpolationmode none
attr source packetDropReasonIsHopLimitReached(packetDropped)
attr title "packet drop: hop limit reached, count"
scalar WiredAndWirelessHostsWithAP.wirelessHost[1].ipv4.ip packetDropHopLimitReached:sum(packetBytes) 0
attr interpolationmode none
attr source packetDropReasonIsHopLimitReached(packetDropped)
attr title "packet drop: hop limit reached, sum(packetBytes)"
scalar WiredAndWirelessHostsWithAP.wirelessHost[1].ipv4.ip packetDropForwardingDisabled:count 0
attr interpolationmode none
attr source packetDropReasonIsForwardingDisabled(packetDropped)
attr title "packet drop: forwarding disabled, count"
scalar WiredAndWirelessHostsWithAP.wirelessHost[1].ipv4.ip packetDropForwardingDisabled:sum(packetBytes) 0
attr interpolationmode none
attr source packetDropReasonIsForwardingDisabled(packetDropped)
attr title "packet drop: forwarding disabled, sum(packetBytes)"
scalar WiredAndWirelessHostsWithAP.wirelessHost[1].ipv4.ip packetDropNoInterfaceFound:count 0
attr interpolationmode none
attr source packetDropReasonIsNoInterfaceFound(packetDropped)
attr title "packet drop: no interface found, count"
scalar WiredAndWirelessHostsWithAP.wirelessHost[1].ipv4.ip packetDropNoInterfaceFound:sum(packetBytes) 0
attr interpolationmode none
attr source packetDropReasonIsNoInterfaceFound(packetDropped)
attr title "packet drop: no interface found, sum(packetBytes)"
scalar WiredAndWirelessHostsWithAP.wirelessHost[1].ipv4.ip packetDropNoRouteFound:count 0
attr interpolationmode none
attr source packetDropReasonIsNoRouteFound(packetDropped)
attr title "packet drop: no route found, count"
scalar WiredAndWirelessHostsWithAP.wirelessHost[1].ipv4.ip packetDropNoRouteFound:sum(packetBytes) 0
attr interpolationmode none
attr source packetDropReasonIsNoRouteFound(packetDropped)
attr title "packet drop: no route found, sum(packetBytes)"
scalar WiredAndWirelessHostsWithAP.wirelessHost[1].ipv4.ip packetDropUndefined:count 0
attr interpolationmode none
attr source packetDropReasonIsUndefined(packetDropped)
attr title "packet drop: undefined, count"
scalar WiredAndWirelessHostsWithAP.wirelessHost[1].ipv4.ip packetDropUndefined:sum(packetBytes) 0
attr interpolationmode none
attr source packetDropReasonIsUndefined(packetDropped)
attr title "packet drop: undefined, sum(packetBytes)"
scalar WiredAndWirelessHostsWithAP.wirelessHost[1].ipv4.arp arpResolutionFailed:count 0
attr title "ARP failed resolutions, count"
scalar WiredAndWirelessHostsWithAP.wirelessHost[1].ipv4.arp arpResolutionCompleted:count 1
attr title "ARP completed resolutions, count"
scalar WiredAndWirelessHostsWithAP.wirelessHost[1].ipv4.arp arpResolutionInitiated:count 1
attr title "ARP initiated resolutions, count"
scalar WiredAndWirelessHostsWithAP.wirelessHost[1].ipv4.arp arpReplySent:count 0
attr source arpReplySent
attr title "ARP replies sent, count"
scalar WiredAndWirelessHostsWithAP.wirelessHost[1].ipv4.arp arpReplySent:sum(packetBytes) 0
attr source arpReplySent
attr title "ARP replies sent, sum(packetBytes)"
scalar WiredAndWirelessHostsWithAP.wirelessHost[1].ipv4.arp arpRequestSent:count 1
attr source arpRequestSent
attr title "ARP request sent, count"
scalar WiredAndWirelessHostsWithAP.wirelessHost[1].ipv4.arp arpRequestSent:sum(packetBytes) 28
attr source arpRequestSent
attr title "ARP request sent, sum(packetBytes)"
scalar WiredAndWirelessHostsWithAP.wirelessHost[1].udp packetReceived:count 0
attr interpolationmode none
attr source packetReceived
attr title "packets received, count"
scalar WiredAndWirelessHostsWithAP.wirelessHost[1].udp packetReceived:sum(packetBytes) 0
attr interpolationmode none
attr source packetReceived
attr title "packets received, sum(packetBytes)"
scalar WiredAndWirelessHostsWithAP.wirelessHost[1].udp packetSent:count 40
attr interpolationmode none
attr source packetSent
attr title "packets sent, count"
scalar WiredAndWirelessHostsWithAP.wirelessHost[1].udp packetSent:sum(packetBytes) 4320
attr interpolationmode none
attr source packetSent
attr title "packets sent, sum(packetBytes)"
scalar WiredAndWirelessHostsWithAP.wirelessHost[1].udp passedUpPk:count 0
attr interpolationmode none
attr source packetSentToUpper
attr title "packets passed up, count"
scalar WiredAndWirelessHostsWithAP.wirelessHost[1].udp droppedPkWrongPort:count 0
attr interpolationmode none
attr source packetDropReasonIsNoPortFound(packetDropped)
attr title "packets dropped (wrong port), count"
scalar WiredAndWirelessHostsWithAP.wirelessHost[1].udp droppedPkBadChecksum:count 0
attr interpolationmode none
attr source packetDropReasonIsIncorrectlyReceived(packetDropped)
attr title "packets dropped (checksum error), count"
scalar WiredAndWirelessHostsWithAP.wirelessHost[1].app[0] "packets sent" 40
scalar WiredAndWirelessHostsWithAP.wirelessHost[1].app[0] "packets received" 0
scalar WiredAndWirelessHostsWithAP.wirelessHost[1].app[0] packetReceived:count 0
attr interpolationmode none
attr source packetReceived
attr title "packets received, count"
scalar WiredAndWirelessHostsWithAP.wirelessHost[1].app[0] packetReceived:sum(packetBytes) 0
attr interpolationmode none
attr source packetReceived
attr title "packets received, sum(packetBytes)"
statistic WiredAndWirelessHostsWithAP.wirelessHost[1].app[0] rcvdPkLifetime:stats
field count 0
field mean -nan
field stddev nan
field min nan
field max nan
field sum 0
field sqrsum 0
attr interpolationmode none
attr source dataAge(packetReceived)
attr title "received packet lifetime, stats"
attr unit s
scalar WiredAndWirelessHostsWithAP.wirelessHost[1].app[0] packetSent:count 40
attr interpolationmode none
attr source packetSent
attr title "packets sent, count"
scalar WiredAndWirelessHostsWithAP.wirelessHost[1].app[0] packetSent:sum(packetBytes) 4000
attr interpolationmode none
attr source packetSent
attr title "packets sent, sum(packetBytes)"
scalar WiredAndWirelessHostsWithAP.wirelessHost[2].lo[0].lo rcvdPkFromHl:count 0
attr interpolationmode none
attr source packetReceivedFromUpper
attr title "packets received from higher layer, count"
scalar WiredAndWirelessHostsWithAP.wirelessHost[2].lo[0].lo rcvdPkFromHl:sum(packetBytes) 0
attr interpolationmode none
attr source packetReceivedFromUpper
attr title "packets received from higher layer, sum(packetBytes)"
scalar WiredAndWirelessHostsWithAP.wirelessHost[2].lo[0].lo passedUpPk:count 0
attr interpolationmode none
attr source packetSentToUpper
attr title "packets passed to higher layer, count"
scalar WiredAndWirelessHostsWithAP.wirelessHost[2].lo[0].lo passedUpPk:sum(packetBytes) 0
attr interpolationmode none
attr source packetSentToUpper
attr title "packets passed to higher layer, sum(packetBytes)"
scalar WiredAndWirelessHostsWithAP.wirelessHost[2].wlan[0].agent dropConfirm:count 0
attr title "dropped confirms, count"
scalar WiredAndWirelessHostsWithAP.wirelessHost[2].wlan[0].agent acceptConfirm:count 3
attr title "accepted confirms, count"
scalar WiredAndWirelessHostsWithAP.wirelessHost[2].wlan[0].agent sentRequest:count 3
attr title "sent requests, count"
scalar WiredAndWirelessHostsWithAP.wirelessHost[2].wlan[0].mac.dcf.channelAccess.pendingQueue packetPopped:count 45
attr interpolationmode none
attr title "packet popped, count"
scalar WiredAndWirelessHostsWithAP.wirelessHost[2].wlan[0].mac.dcf.channelAccess.pendingQueue packetPopped:sum(packetBytes) 6760
attr interpolationmode none
attr title "packet popped, sum(packetBytes)"
statistic WiredAndWirelessHostsWithAP.wirelessHost[2].wlan[0].mac.dcf.channelAccess.pendingQueue queueingTime:histogram
field count 45
field mean 1.8933333333333e-05
field stddev 7.5262691469763e-05
field min 0
field max 0.000404
field sum 0.000852
field sqrsum 2.65368e-07
attr interpolationmode none
attr source queueingTime(packetPopped)
attr title "queueing times, histogram"
attr unit s
bin	-inf	0
bin	0	42
bin	1e-05	0
bin	2e-05	0
bin	3e-05	0
bin	4e-05	0
bin	5e-05	0
bin	6e-05	0
bin	7e-05	0
bin	8e-05	0
bin	9e-05	0
bin	0.0001	0
bin	0.00011	0
bin	0.00012	0
bin	0.00013	0
bin	0.00014	0
bin	0.00015	0
bin	0.00016	0
bin	0.00017	0
bin	0.00018	0
bin	0.00019	1
bin	0.0002	0
bin	0.00021	0
bin	0.00022	0
bin	0.00023	0
bin	0.00024	0
bin	0.00025	1
bin	0.00026	0
bin	0.00027	0
bin	0.00028	0
bin	0.00029	0
bin	0.0003	0
bin	0.00031	0
bin	0.00032	0
bin	0.00033	0
bin	0.00034	0
bin	0.00035	0
bin	0.00036	0
bin	0.00037	0
bin	0.00038	0
bin	0.00039	0
bin	0.0004	1
bin	0.00041	0
bin	0.00042	0
bin	0.00043	0
bin	0.00044	0
bin	0.00045	0
bin	0.00046	0
bin	0.00047	0
bin	0.00048	0
bin	0.00049	0
bin	0.0005	0
bin	0.00051	0
scalar WiredAndWirelessHostsWithAP.wirelessHost[2].wlan[0].mac.dcf.channelAccess.pendingQueue queueLength:max 1
attr interpolationmode sample-hold
attr source "count(packetPushed) - count(packetPopped) - count(packetRemoved) - count(packetDropped)"
attr title "queue length, max"
scalar WiredAndWirelessHostsWithAP.wirelessHost[2].wlan[0].mac.dcf.channelAccess.pendingQueue queueLength:timeavg 2.1483991916327e-05
attr interpolationmode sample-hold
attr source "count(packetPushed) - count(packetPopped) - count(packetRemoved) - count(packetDropped)"
attr title "queue length, timeavg"
scalar WiredAndWirelessHostsWithAP.wirelessHost[2].wlan[0].mac.dcf.channelAccess.pendingQueue packetPushed:count 45
attr interpolationmode none
attr title "packet pushed, count"
scalar WiredAndWirelessHostsWithAP.wirelessHost[2].wlan[0].mac.dcf.channelAccess.pendingQueue packetPushed:sum(packetBytes) 6760
attr interpolationmode none
attr title "packet pushed, sum(packetBytes)"
scalar WiredAndWirelessHostsWithAP.wirelessHost[2].wlan[0].mac.dcf.channelAccess.pendingQueue packetDropQueueOverflow:count 0
attr interpolationmode none
attr source packetDropReasonIsQueueOverflow(packetDropped)
attr title "packet drops: queue overflow, count"
scalar WiredAndWirelessHostsWithAP.wirelessHost[2].wlan[0].mac.dcf.channelAccess.pendingQueue packetDropQueueOverflow:sum(packetBytes) 0
attr interpolationmode none
attr source packetDropReasonIsQueueOverflow(packetDropped)
attr title "packet drops: queue overflow, sum(packetBytes)"
scalar WiredAndWirelessHostsWithAP.wirelessHost[2].wlan[0].mac.dcf.channelAccess.pendingQueue packetRemoved:count 0
attr interpolationmode none
attr title "packets removed, count"
scalar WiredAndWirelessHostsWithAP.wirelessHost[2].wlan[0].mac.dcf.channelAccess.pendingQueue packetRemoved:sum(packetBytes) 0
attr interpolationmode none
attr title "packets removed, sum(packetBytes)"
statistic WiredAndWirelessHostsWithAP.wirelessHost[2].wlan[0].mac.dcf.channelAccess.inProgressFrames queueingTime:histogram
field count 44
field mean 0.0056487122775682
field stddev 0.0025165159366292
field min 3.8e-05
field max 0.010373751675
field sum 0.248543340213
field sqrsum 0.0016762624731193
attr interpolationmode none
attr source queueingTime(packetDequeued)
attr title "queueing times, histogram"
bin	-inf	0
bin	0	4
bin	0.0002	0
bin	0.0004	0
bin	0.0006	0
bin	0.0008	0
bin	0.001	0
bin	0.0012	0
bin	0.0014	0
bin	0.0016	0
bin	0.0018	1
bin	0.002	0
bin	0.0022	0
bin	0.0024	0
bin	0.0026	0
bin	0.0028	0
bin	0.003	0
bin	0.0032	0
bin	0.0034	0
bin	0.0036	5
bin	0.0038	3
bin	0.004	1
bin	0.0042	0
bin	0.0044	0
bin	0.0046	0
bin	0.0048	0
bin	0.005	0
bin	0.0052	0
bin	0.0054	0
bin	0.0056	6
bin	0.0058	5
bin	0.006	2
bin	0.0062	1
bin	0.0064	0
bin	0.0066	0
bin	0.0068	0
bin	0.007	0
bin	0.0072	0
bin	0.0074	0
bin	0.0076	2
bin	0.0078	11
bin	0.008	1
bin	0.0082	0
bin	0.0084	0
bin	0.0086	0
bin	0.0088	1
bin	0.009	0
bin	0.0092	0
bin	0.0094	0
bin	0.0096	0
bin	0.0098	0
bin	0.01	0
bin	0.0102	1
bin	0.0104	0
bin	0.0106	0
bin	0.0108	0
bin	0.011	0
bin	0.0112	0
bin	0.0114	0
bin	0.0116	0
bin	0.0118	0
bin	0.012	0
bin	0.0122	0
bin	0.0124	0
bin	0.0126	0
bin	0.0128	0
bin	0.013	0
scalar WiredAndWirelessHostsWithAP.wirelessHost[2].wlan[0].mac.dcf.channelAccess.inProgressFrames queueLength:max 1
attr interpolationmode sample-hold
attr source "count(packetEnqueued) - count(packetDequeued)"
attr title "queue length, max"
scalar WiredAndWirelessHostsWithAP.wirelessHost[2].wlan[0].mac.dcf.channelAccess.inProgressFrames queueLength:timeavg 0.0062672571737007
attr interpolationmode sample-hold
attr source "count(packetEnqueued) - count(packetDequeued)"
attr title "queue length, timeavg"
scalar WiredAndWirelessHostsWithAP.wirelessHost[2].wlan[0].mac.dcf.channelAccess.contention channelAccessGranted:count 87
attr title "channel access granted, count"
scalar WiredAndWirelessHostsWithAP.wirelessHost[2].wlan[0].mac.dcf.channelAccess.contention stateChanged:count 3128
attr interpolationmode none
attr title "contention state changed, count"
scalar WiredAndWirelessHostsWithAP.wirelessHost[2].wlan[0].mac.dcf.channelAccess channelOwnershipChanged:count 173
attr interpolationmode sample-hold
attr title "channel ownership, count"
scalar WiredAndWirelessHostsWithAP.wirelessHost[2].wlan[0].mac.dcf.originatorMacDataService packetAggregated:count 0
attr title "packets aggregated, count"
scalar WiredAndWirelessHostsWithAP.wirelessHost[2].wlan[0].mac.dcf.originatorMacDataService packetFragmented:count 0
attr title "packets fragmented, count"
scalar WiredAndWirelessHostsWithAP.wirelessHost[2].wlan[0].mac.dcf.recipientMacDataService packetDeaggregated:count 0
attr title "packets deaggregated, count"
scalar WiredAndWirelessHostsWithAP.wirelessHost[2].wlan[0].mac.dcf.recipientMacDataService packetDefragmented:count 410
attr title "packets defragmented, count"
scalar WiredAndWirelessHostsWithAP.wirelessHost[2].wlan[0].mac.dcf.recipientMacDataService packetDropDuplicateDetected:count 0
attr interpolationmode none
attr source packetDropReasonIsDuplicateDetected(packetDropped)
attr title "packet drops: duplicate detected, count"
scalar WiredAndWirelessHostsWithAP.wirelessHost[2].wlan[0].mac.dcf.recipientMacDataService packetDropDuplicateDetected:sum(packetBytes) 0
attr interpolationmode none
attr source packetDropReasonIsDuplicateDetected(packetDropped)
attr title "packet drops: duplicate detected, sum(packetBytes)"
scalar WiredAndWirelessHostsWithAP.wirelessHost[2].wlan[0].mac.dcf.recoveryProcedure retryLimitReached:count 0
attr title "retry limit reached, count"
scalar WiredAndWirelessHostsWithAP.wirelessHost[2].wlan[0].mac.dcf frameSequenceFinished:count 86
attr title "finished frame sequences, count"
statistic WiredAndWirelessHostsWithAP.wirelessHost[2].wlan[0].mac.dcf frameSequenceDuration:histogram
field count 86
field mean 0.0016752296198372
field stddev 0.00037838640494013
field min 3.8e-05
field max 0.001819605526
field sum 0.144069747306
field sqrsum 0.00025351989108217
attr source frameSequenceDuration(frameSequenceFinished)
attr title "frame sequence durations, histogram"
bin	-inf	0
bin	0	1
bin	5e-05	3
bin	0.0001	0
bin	0.00015	0
bin	0.0002	0
bin	0.00025	0
bin	0.0003	0
bin	0.00035	0
bin	0.0004	0
bin	0.00045	0
bin	0.0005	0
bin	0.00055	0
bin	0.0006	0
bin	0.00065	0
bin	0.0007	0
bin	0.00075	0
bin	0.0008	0
bin	0.00085	0
bin	0.0009	1
bin	0.00095	0
bin	0.001	1
bin	0.00105	0
bin	0.0011	0
bin	0.00115	0
bin	0.0012	0
bin	0.00125	0
bin	0.0013	0
bin	0.00135	0
bin	0.0014	0
bin	0.00145	0
bin	0.0015	0
bin	0.00155	0
bin	0.0016	0
bin	0.00165	0
bin	0.0017	40
bin	0.00175	0
bin	0.0018	40
bin	0.00185	0
bin	0.0019	0
bin	0.00195	0
bin	0.002	0
bin	0.00205	0
bin	0.0021	0
bin	0.00215	0
bin	0.0022	0
bin	0.00225	0
bin	0.0023	0
statistic WiredAndWirelessHostsWithAP.wirelessHost[2].wlan[0].mac.dcf frameSequenceNumPackets:histogram
field count 86
field mean 1.9883720930233
field stddev 0.10783277320344
field min 1
field max 2
field sum 171
field sqrsum 341
attr source frameSequenceNumPackets(frameSequenceFinished)
attr title "frame sequences: number of packets, histogram"
bin	-inf	0
bin	0	0
bin	1	1
bin	2	85
bin	3	0
scalar WiredAndWirelessHostsWithAP.wirelessHost[2].wlan[0].mac.dcf packetReceivedFromPeer:count 453
attr interpolationmode none
attr title "packets received, count"
scalar WiredAndWirelessHostsWithAP.wirelessHost[2].wlan[0].mac.dcf packetReceivedFromPeer:sum(packetBytes) 20310
attr interpolationmode none
attr title "packets received, sum(packetBytes)"
scalar WiredAndWirelessHostsWithAP.wirelessHost[2].wlan[0].mac.dcf packetReceivedFromPeerUnicast:count 48
attr interpolationmode none
[...]
attr source packetDropReasonIsQueueOverflow(packetDropped)
attr title "packet drops: queue overflow, count"
scalar WiredAndWirelessHostsWithAP.accessPoint.wlan[0].mac packetDropQueueOverflow:sum(packetBytes) 0
attr interpolationmode none
attr source packetDropReasonIsQueueOverflow(packetDropped)
attr title "packet drops: queue overflow, sum(packetBytes)"
scalar WiredAndWirelessHostsWithAP.accessPoint.wlan[0].mac packetDropRetryLimitReached:count 0
attr interpolationmode none
attr source packetDropReasonIsRetryLimitReached(packetDropped)
attr title "packet drops: retry limit reached, count"
scalar WiredAndWirelessHostsWithAP.accessPoint.wlan[0].mac packetDropRetryLimitReached:sum(packetBytes) 0
attr interpolationmode none
attr source packetDropReasonIsRetryLimitReached(packetDropped)
attr title "packet drops: retry limit reached, sum(packetBytes)"
scalar WiredAndWirelessHostsWithAP.accessPoint.wlan[0].mac packetDropDuplicateDetected:count 0
attr interpolationmode none
attr source packetDropReasonIsDuplicateDetected(packetDropped)
attr title "packet drops: duplicate detected, count"
scalar WiredAndWirelessHostsWithAP.accessPoint.wlan[0].mac packetDropDuplicateDetected:sum(packetBytes) 0
attr interpolationmode none
attr source packetDropReasonIsDuplicateDetected(packetDropped)
attr title "packet drops: duplicate detected, sum(packetBytes)"
scalar WiredAndWirelessHostsWithAP.accessPoint.wlan[0].mac packetDropOther:count 0
attr interpolationmode none
attr source packetDropReasonIsOther(packetDropped)
attr title "packet drops: other, count"
scalar WiredAndWirelessHostsWithAP.accessPoint.wlan[0].mac packetDropOther:sum(packetBytes) 0
attr interpolationmode none
attr source packetDropReasonIsOther(packetDropped)
attr title "packet drops: other, sum(packetBytes)"
scalar WiredAndWirelessHostsWithAP.accessPoint.wlan[0].mac linkBroken:count 0
attr interpolationmode none
attr title "link breaks, count"
statistic WiredAndWirelessHostsWithAP.accessPoint.wlan[0].radio radioChannel:histogram
field count 1
field mean 0
field stddev -nan
field min 0
field max 0
field sum 0
field sqrsum 0
attr interpolationmode sample-hold
attr source radioChannelChanged
attr title "Radio channel, histogram"
bin	-inf	0
bin	-0.5	0
bin	-0.48	0
bin	-0.46	0
bin	-0.44	0
bin	-0.42	0
bin	-0.4	0
bin	-0.38	0
bin	-0.36	0
bin	-0.34	0
bin	-0.32	0
bin	-0.3	0
bin	-0.28	0
bin	-0.26	0
bin	-0.24	0
bin	-0.22	0
bin	-0.2	0
bin	-0.18	0
bin	-0.16	0
bin	-0.14	0
bin	-0.12	0
bin	-0.1	0
bin	-0.08	0
bin	-0.06	0
bin	-0.04	0
bin	-0.02	0
bin	0	1
bin	0.02	0
bin	0.04	0
bin	0.06	0
bin	0.08	0
bin	0.1	0
bin	0.12	0
bin	0.14	0
bin	0.16	0
bin	0.18	0
bin	0.2	0
bin	0.22	0
bin	0.24	0
bin	0.26	0
bin	0.28	0
bin	0.3	0
bin	0.32	0
bin	0.34	0
bin	0.36	0
bin	0.38	0
bin	0.4	0
bin	0.42	0
bin	0.44	0
bin	0.46	0
bin	0.48	0
bin	0.5	0
scalar WiredAndWirelessHostsWithAP.accessPoint.wlan[0].radio radioMode:count 1099
attr interpolationmode sample-hold
attr source radioModeChanged
attr title "Radio mode, count"
scalar WiredAndWirelessHostsWithAP.accessPoint.wlan[0].radio receptionState:count 1521
attr interpolationmode sample-hold
attr source receptionStateChanged
attr title "Radio reception state, count"
scalar WiredAndWirelessHostsWithAP.accessPoint.wlan[0].radio transmissionState:count 2192
attr interpolationmode sample-hold
attr source transmissionStateChanged
attr title "Radio transmission state, count"
statistic WiredAndWirelessHostsWithAP.accessPoint.wlan[0].radio minSnir:histogram
field count 190
field mean 75.731350069888
field stddev 64.662977235825
field min 1.3955280191195
field max 172.89406378891
field sum 14388.956513279
field sqrsum 1879960.9209727
attr source minimumSnir(packetSentToUpper)
attr title "Min SNIR, histogram"
bin	-inf	0
bin	0	44
bin	5	0
bin	10	0
bin	15	0
bin	20	0
bin	25	0
bin	30	49
bin	35	0
bin	40	0
bin	45	0
bin	50	0
bin	55	0
bin	60	0
bin	65	0
bin	70	0
bin	75	0
bin	80	0
bin	85	49
bin	90	0
bin	95	0
bin	100	0
bin	105	0
bin	110	0
bin	115	0
bin	120	0
bin	125	0
bin	130	0
bin	135	0
bin	140	0
bin	145	0
bin	150	0
bin	155	0
bin	160	0
bin	165	0
bin	170	48
bin	175	0
bin	180	0
bin	185	0
bin	190	0
bin	195	0
bin	200	0
bin	205	0
bin	210	0
bin	215	0
bin	220	0
statistic WiredAndWirelessHostsWithAP.accessPoint.wlan[0].radio packetErrorRate:histogram
field count 190
field mean 0.22630251720364
field stddev 0.41913090646752
field min 0
field max 1
field sum 42.997478268692
field sqrsum 42.932203032552
attr source packetErrorRate(packetSentToUpper)
attr title "Packet error rate, histogram"
bin	-inf	0
bin	0	146
bin	0.02	1
bin	0.04	0
bin	0.06	0
bin	0.08	0
bin	0.1	0
bin	0.12	0
bin	0.14	0
bin	0.16	0
bin	0.18	0
bin	0.2	0
bin	0.22	0
bin	0.24	0
bin	0.26	0
bin	0.28	0
bin	0.3	0
bin	0.32	0
bin	0.34	0
bin	0.36	0
bin	0.38	0
bin	0.4	0
bin	0.42	0
bin	0.44	0
bin	0.46	0
bin	0.48	0
bin	0.5	0
bin	0.52	0
bin	0.54	0
bin	0.56	0
bin	0.58	0
bin	0.6	0
bin	0.62	0
bin	0.64	0
bin	0.66	0
bin	0.68	0
bin	0.7	0
bin	0.72	0
bin	0.74	0
bin	0.76	0
bin	0.78	0
bin	0.8	0
bin	0.82	0
bin	0.84	0
bin	0.86	0
bin	0.88	0
bin	0.9	0
bin	0.92	0
bin	0.94	0
bin	0.96	0
bin	0.98	5
bin	1	38
bin	1.02	0
bin	1.04	0
bin	1.06	0
bin	1.08	0
bin	1.1	0
bin	1.12	0
bin	1.14	0
bin	1.16	0
bin	1.18	0
bin	1.2	0
bin	1.22	0
bin	1.24	0
bin	1.26	0
statistic WiredAndWirelessHostsWithAP.accessPoint.wlan[0].radio bitErrorRate:histogram
field count 0
field mean -nan
field stddev nan
field min nan
field max nan
field sum 0
field sqrsum 0
attr source bitErrorRate(packetSentToUpper)
attr title "Bit error rate, histogram"
bin	-inf	0
bin	0	0
bin	1	0
statistic WiredAndWirelessHostsWithAP.accessPoint.wlan[0].radio symbolErrorRate:histogram
field count 0
field mean -nan
field stddev nan
field min nan
field max nan
field sum 0
field sqrsum 0
attr source symbolErrorRate(packetSentToUpper)
attr title "Symbol error rate, histogram"
bin	-inf	0
bin	0	0
bin	1	0
scalar WiredAndWirelessHostsWithAP.accessPoint.eth[0].mac.queue packetPopped:count 4
attr interpolationmode none
attr title "packet popped, count"
scalar WiredAndWirelessHostsWithAP.accessPoint.eth[0].mac.queue packetPopped:sum(packetBytes) 256
attr interpolationmode none
attr title "packet popped, sum(packetBytes)"
statistic WiredAndWirelessHostsWithAP.accessPoint.eth[0].mac.queue queueingTime:histogram
field count 4
field mean 0
field stddev 0
field min 0
field max 0
field sum 0
field sqrsum 0
attr interpolationmode none
attr source queueingTime(packetPopped)
attr title "queueing times, histogram"
attr unit s
bin	-inf	0
bin	-0.5	0
bin	-0.48	0
bin	-0.46	0
bin	-0.44	0
bin	-0.42	0
bin	-0.4	0
bin	-0.38	0
bin	-0.36	0
bin	-0.34	0
bin	-0.32	0
bin	-0.3	0
bin	-0.28	0
bin	-0.26	0
bin	-0.24	0
bin	-0.22	0
bin	-0.2	0
bin	-0.18	0
bin	-0.16	0
bin	-0.14	0
bin	-0.12	0
bin	-0.1	0
bin	-0.08	0
bin	-0.06	0
bin	-0.04	0
bin	-0.02	0
bin	0	4
bin	0.02	0
bin	0.04	0
bin	0.06	0
bin	0.08	0
bin	0.1	0
bin	0.12	0
bin	0.14	0
bin	0.16	0
bin	0.18	0
bin	0.2	0
bin	0.22	0
bin	0.24	0
bin	0.26	0
bin	0.28	0
bin	0.3	0
bin	0.32	0
bin	0.34	0
bin	0.36	0
bin	0.38	0
bin	0.4	0
bin	0.42	0
bin	0.44	0
bin	0.46	0
bin	0.48	0
bin	0.5	0
scalar WiredAndWirelessHostsWithAP.accessPoint.eth[0].mac.queue queueLength:max 1
attr interpolationmode sample-hold
attr source "count(packetPushed) - count(packetPopped) - count(packetRemoved) - count(packetDropped)"
attr title "queue length, max"
scalar WiredAndWirelessHostsWithAP.accessPoint.eth[0].mac.queue queueLength:timeavg 0
attr interpolationmode sample-hold
attr source "count(packetPushed) - count(packetPopped) - count(packetRemoved) - count(packetDropped)"
attr title "queue length, timeavg"
scalar WiredAndWirelessHostsWithAP.accessPoint.eth[0].mac.queue packetPushed:count 4
attr interpolationmode none
attr title "packet pushed, count"
scalar WiredAndWirelessHostsWithAP.accessPoint.eth[0].mac.queue packetPushed:sum(packetBytes) 256
attr interpolationmode none
attr title "packet pushed, sum(packetBytes)"
scalar WiredAndWirelessHostsWithAP.accessPoint.eth[0].mac.queue packetDropQueueOverflow:count 0
attr interpolationmode none
attr source packetDropReasonIsQueueOverflow(packetDropped)
attr title "packet drops: queue overflow, count"
scalar WiredAndWirelessHostsWithAP.accessPoint.eth[0].mac.queue packetDropQueueOverflow:sum(packetBytes) 0
attr interpolationmode none
attr source packetDropReasonIsQueueOverflow(packetDropped)
attr title "packet drops: queue overflow, sum(packetBytes)"
scalar WiredAndWirelessHostsWithAP.accessPoint.eth[0].mac.queue packetRemoved:count 0
attr interpolationmode none
attr title "packets removed, count"
scalar WiredAndWirelessHostsWithAP.accessPoint.eth[0].mac.queue packetRemoved:sum(packetBytes) 0
attr interpolationmode none
attr title "packets removed, sum(packetBytes)"
scalar WiredAndWirelessHostsWithAP.accessPoint.eth[0].mac "simulated time" 40
scalar WiredAndWirelessHostsWithAP.accessPoint.eth[0].mac full-duplex 1
scalar WiredAndWirelessHostsWithAP.accessPoint.eth[0].mac "frames/sec sent" 0.1
scalar WiredAndWirelessHostsWithAP.accessPoint.eth[0].mac "frames/sec rcvd" 2.95
scalar WiredAndWirelessHostsWithAP.accessPoint.eth[0].mac "bits/sec sent" 51.2
scalar WiredAndWirelessHostsWithAP.accessPoint.eth[0].mac "bits/sec rcvd" 3429.2
scalar WiredAndWirelessHostsWithAP.accessPoint.eth[0].mac "rx channel idle (%)" 100
scalar WiredAndWirelessHostsWithAP.accessPoint.eth[0].mac "rx channel utilization (%)" 0
scalar WiredAndWirelessHostsWithAP.accessPoint.eth[0].mac rxPausePkUnits:count 0
attr interpolationmode none
attr title "pause units received, count"
scalar WiredAndWirelessHostsWithAP.accessPoint.eth[0].mac rxPausePkUnits:sum 0
attr interpolationmode none
attr title "pause units received, sum"
scalar WiredAndWirelessHostsWithAP.accessPoint.eth[0].mac txPausePkUnits:count 0
attr interpolationmode none
attr title "pause units sent, count"
scalar WiredAndWirelessHostsWithAP.accessPoint.eth[0].mac txPausePkUnits:sum 0
attr interpolationmode none
attr title "pause units sent, sum"
scalar WiredAndWirelessHostsWithAP.accessPoint.eth[0].mac rxPkOk:count 118
attr interpolationmode none
attr source rxPkOk
attr title "packets received OK, count"
scalar WiredAndWirelessHostsWithAP.accessPoint.eth[0].mac rxPkOk:sum(packetBytes) 17146
attr interpolationmode none
attr source rxPkOk
attr title "packets received OK, sum(packetBytes)"
scalar WiredAndWirelessHostsWithAP.accessPoint.eth[0].mac txPk:count 4
attr interpolationmode none
attr source packetSentToLower
attr title "packets transmitted, count"
scalar WiredAndWirelessHostsWithAP.accessPoint.eth[0].mac txPk:sum(packetBytes) 256
attr interpolationmode none
attr source packetSentToLower
attr title "packets transmitted, sum(packetBytes)"
scalar WiredAndWirelessHostsWithAP.accessPoint.eth[0].mac packetReceivedFromUpper:count 4
attr interpolationmode none
attr source packetReceivedFromUpper
attr title "packet bytes from higher layer, count"
scalar WiredAndWirelessHostsWithAP.accessPoint.eth[0].mac packetReceivedFromUpper:sum(packetBytes) 202
attr interpolationmode none
attr source packetReceivedFromUpper
attr title "packet bytes from higher layer, sum(packetBytes)"
scalar WiredAndWirelessHostsWithAP.accessPoint.eth[0].mac passedUpPk:count 118
attr interpolationmode none
attr source packetSentToUpper
attr title "packets passed to higher layer, count"
scalar WiredAndWirelessHostsWithAP.accessPoint.eth[0].mac passedUpPk:sum(packetBytes) 17146
attr interpolationmode none
attr source packetSentToUpper
attr title "packets passed to higher layer, sum(packetBytes)"
scalar WiredAndWirelessHostsWithAP.accessPoint.eth[0].mac packetDropIncorrectlyReceived:count 0
attr interpolationmode none
attr source packetDropReasonIsIncorrectlyReceived(packetDropped)
attr title "packet drop: incorrectly received, count"
scalar WiredAndWirelessHostsWithAP.accessPoint.eth[0].mac packetDropIncorrectlyReceived:sum(packetBytes) 0
attr interpolationmode none
attr source packetDropReasonIsIncorrectlyReceived(packetDropped)
attr title "packet drop: incorrectly received, sum(packetBytes)"
scalar WiredAndWirelessHostsWithAP.accessPoint.eth[0].mac packetDropInterfaceDown:count 0
attr interpolationmode none
attr source packetDropReasonIsInterfaceDown(packetDropped)
attr title "packet drop: interface down, count"
scalar WiredAndWirelessHostsWithAP.accessPoint.eth[0].mac packetDropInterfaceDown:sum(packetBytes) 0
attr interpolationmode none
attr source packetDropReasonIsInterfaceDown(packetDropped)
attr title "packet drop: interface down, sum(packetBytes)"
scalar WiredAndWirelessHostsWithAP.accessPoint.eth[0].mac packetDropNotAddressedToUs:count 0
attr interpolationmode none
attr source packetDropReasonIsNotAddressedToUs(packetDropped)
attr title "packet drop: not addressed to us, count"
scalar WiredAndWirelessHostsWithAP.accessPoint.eth[0].mac packetDropNotAddressedToUs:sum(packetBytes) 0
attr interpolationmode none
attr source packetDropReasonIsNotAddressedToUs(packetDropped)
attr title "packet drop: not addressed to us, sum(packetBytes)"
scalar WiredAndWirelessHostsWithAP.accessPoint.eth[1].mac.queue packetPopped:count 238
attr interpolationmode none
attr title "packet popped, count"
scalar WiredAndWirelessHostsWithAP.accessPoint.eth[1].mac.queue packetPopped:sum(packetBytes) 34420
attr interpolationmode none
attr title "packet popped, sum(packetBytes)"
statistic WiredAndWirelessHostsWithAP.accessPoint.eth[1].mac.queue queueingTime:histogram
field count 238
field mean 0
field stddev 0
field min 0
field max 0
field sum 0
field sqrsum 0
attr interpolationmode none
attr source queueingTime(packetPopped)
attr title "queueing times, histogram"
attr unit s
bin	-inf	0
bin	-0.5	0
bin	-0.48	0
bin	-0.46	0
bin	-0.44	0
bin	-0.42	0
bin	-0.4	0
bin	-0.38	0
bin	-0.36	0
bin	-0.34	0
bin	-0.32	0
bin	-0.3	0
bin	-0.28	0
bin	-0.26	0
bin	-0.24	0
bin	-0.22	0
bin	-0.2	0
bin	-0.18	0
bin	-0.16	0
bin	-0.14	0
bin	-0.12	0
bin	-0.1	0
bin	-0.08	0
bin	-0.06	0
bin	-0.04	0
bin	-0.02	0
bin	0	238
bin	0.02	0
bin	0.04	0
bin	0.06	0
bin	0.08	0
bin	0.1	0
bin	0.12	0
bin	0.14	0
bin	0.16	0
bin	0.18	0
bin	0.2	0
bin	0.22	0
bin	0.24	0
bin	0.26	0
bin	0.28	0
bin	0.3	0
bin	0.32	0
bin	0.34	0
bin	0.36	0
bin	0.38	0
bin	0.4	0
bin	0.42	0
bin	0.44	0
bin	0.46	0
bin	0.48	0
bin	0.5	0
scalar WiredAndWirelessHostsWithAP.accessPoint.eth[1].mac.queue queueLength:max 1
attr interpolationmode sample-hold
attr source "count(packetPushed) - count(packetPopped) - count(packetRemoved) - count(packetDropped)"
attr title "queue length, max"
scalar WiredAndWirelessHostsWithAP.accessPoint.eth[1].mac.queue queueLength:timeavg 0
attr interpolationmode sample-hold
attr source "count(packetPushed) - count(packetPopped) - count(packetRemoved) - count(packetDropped)"
attr title "queue length, timeavg"
scalar WiredAndWirelessHostsWithAP.accessPoint.eth[1].mac.queue packetPushed:count 238
attr interpolationmode none
attr title "packet pushed, count"
scalar WiredAndWirelessHostsWithAP.accessPoint.eth[1].mac.queue packetPushed:sum(packetBytes) 34420
attr interpolationmode none
attr title "packet pushed, sum(packetBytes)"
scalar WiredAndWirelessHostsWithAP.accessPoint.eth[1].mac.queue packetDropQueueOverflow:count 0
attr interpolationmode none
attr source packetDropReasonIsQueueOverflow(packetDropped)
attr title "packet drops: queue overflow, count"
scalar WiredAndWirelessHostsWithAP.accessPoint.eth[1].mac.queue packetDropQueueOverflow:sum(packetBytes) 0
attr interpolationmode none
attr source packetDropReasonIsQueueOverflow(packetDropped)
attr title "packet drops: queue overflow, sum(packetBytes)"
scalar WiredAndWirelessHostsWithAP.accessPoint.eth[1].mac.queue packetRemoved:count 0
attr interpolationmode none
attr title "packets removed, count"
scalar WiredAndWirelessHostsWithAP.accessPoint.eth[1].mac.queue packetRemoved:sum(packetBytes) 0
attr interpolationmode none
attr title "packets removed, sum(packetBytes)"
scalar WiredAndWirelessHostsWithAP.accessPoint.eth[1].mac "simulated time" 40
scalar WiredAndWirelessHostsWithAP.accessPoint.eth[1].mac full-duplex 1
scalar WiredAndWirelessHostsWithAP.accessPoint.eth[1].mac "frames/sec sent" 5.95
scalar WiredAndWirelessHostsWithAP.accessPoint.eth[1].mac "frames/sec rcvd" 0.1
scalar WiredAndWirelessHostsWithAP.accessPoint.eth[1].mac "bits/sec sent" 6884
scalar WiredAndWirelessHostsWithAP.accessPoint.eth[1].mac "bits/sec rcvd" 51.2
scalar WiredAndWirelessHostsWithAP.accessPoint.eth[1].mac "rx channel idle (%)" 100
scalar WiredAndWirelessHostsWithAP.accessPoint.eth[1].mac "rx channel utilization (%)" 0
scalar WiredAndWirelessHostsWithAP.accessPoint.eth[1].mac rxPausePkUnits:count 0
attr interpolationmode none
attr title "pause units received, count"
scalar WiredAndWirelessHostsWithAP.accessPoint.eth[1].mac rxPausePkUnits:sum 0
attr interpolationmode none
attr title "pause units received, sum"
scalar WiredAndWirelessHostsWithAP.accessPoint.eth[1].mac txPausePkUnits:count 0
attr interpolationmode none
attr title "pause units sent, count"
scalar WiredAndWirelessHostsWithAP.accessPoint.eth[1].mac txPausePkUnits:sum 0
attr interpolationmode none
attr title "pause units sent, sum"
scalar WiredAndWirelessHostsWithAP.accessPoint.eth[1].mac rxPkOk:count 4
attr interpolationmode none
attr source rxPkOk
attr title "packets received OK, count"
scalar WiredAndWirelessHostsWithAP.accessPoint.eth[1].mac rxPkOk:sum(packetBytes) 256
attr interpolationmode none
attr source rxPkOk
attr title "packets received OK, sum(packetBytes)"
scalar WiredAndWirelessHostsWithAP.accessPoint.eth[1].mac txPk:count 238
attr interpolationmode none
attr source packetSentToLower
attr title "packets transmitted, count"
scalar WiredAndWirelessHostsWithAP.accessPoint.eth[1].mac txPk:sum(packetBytes) 34420
attr interpolationmode none
attr source packetSentToLower
attr title "packets transmitted, sum(packetBytes)"
scalar WiredAndWirelessHostsWithAP.accessPoint.eth[1].mac packetReceivedFromUpper:count 238
attr interpolationmode none
attr source packetReceivedFromUpper
attr title "packet bytes from higher layer, count"
scalar WiredAndWirelessHostsWithAP.accessPoint.eth[1].mac packetReceivedFromUpper:sum(packetBytes) 34366
attr interpolationmode none
attr source packetReceivedFromUpper
attr title "packet bytes from higher layer, sum(packetBytes)"
scalar WiredAndWirelessHostsWithAP.accessPoint.eth[1].mac passedUpPk:count 4
attr interpolationmode none
attr source packetSentToUpper
attr title "packets passed to higher layer, count"
scalar WiredAndWirelessHostsWithAP.accessPoint.eth[1].mac passedUpPk:sum(packetBytes) 256
attr interpolationmode none
attr source packetSentToUpper
attr title "packets passed to higher layer, sum(packetBytes)"
scalar WiredAndWirelessHostsWithAP.accessPoint.eth[1].mac packetDropIncorrectlyReceived:count 0
attr interpolationmode none
attr source packetDropReasonIsIncorrectlyReceived(packetDropped)
attr title "packet drop: incorrectly received, count"
scalar WiredAndWirelessHostsWithAP.accessPoint.eth[1].mac packetDropIncorrectlyReceived:sum(packetBytes) 0
attr interpolationmode none
attr source packetDropReasonIsIncorrectlyReceived(packetDropped)
attr title "packet drop: incorrectly received, sum(packetBytes)"
scalar WiredAndWirelessHostsWithAP.accessPoint.eth[1].mac packetDropInterfaceDown:count 0
attr interpolationmode none
attr source packetDropReasonIsInterfaceDown(packetDropped)
attr title "packet drop: interface down, count"
scalar WiredAndWirelessHostsWithAP.accessPoint.eth[1].mac packetDropInterfaceDown:sum(packetBytes) 0
attr interpolationmode none
attr source packetDropReasonIsInterfaceDown(packetDropped)
attr title "packet drop: interface down, sum(packetBytes)"
scalar WiredAndWirelessHostsWithAP.accessPoint.eth[1].mac packetDropNotAddressedToUs:count 0
attr interpolationmode none
attr source packetDropReasonIsNotAddressedToUs(packetDropped)
attr title "packet drop: not addressed to us, count"
scalar WiredAndWirelessHostsWithAP.accessPoint.eth[1].mac packetDropNotAddressedToUs:sum(packetBytes) 0
attr interpolationmode none
attr source packetDropReasonIsNotAddressedToUs(packetDropped)
attr title "packet drop: not addressed to us, sum(packetBytes)"

