version 2
run Configurable_WiredAndWirelessHosts-0-20250826-20:17:49-6086
attr configname Configurable_WiredAndWirelessHosts
attr datetime 20250826-20:17:49
attr experiment Configurable_WiredAndWirelessHosts
attr inifile omnetpp.ini
attr iterationvars ""
attr iterationvarsf ""
attr measurement ""
attr network WiredAndWirelessHostsWithAP
attr processid 6086
attr repetition 0
attr replication #0
attr resultdir results
attr runnumber 0
attr seedset 210041226
param **.constraintAreaMinX 0m
param **.constraintAreaMinY 0m
param **.constraintAreaMinZ 0m
param **.constraintAreaMaxX 400m
param **.constraintAreaMaxY 400m
param **.constraintAreaMaxZ 0m
param **.initialZ 0m
param *.visualizer.packetDropVisualizer.displayPacketDrops true
param *.visualizer.mediumVisualizer.displayCommunicationRanges true
param *.visualizer.mediumVisualizer.displayInterferenceRanges true
param **.bitrate 2Mbps
param **.radio.transmitter.power 20mW
param **.radio.receiver.sensitivity -85dBm
param **.radio.receiver.snirThreshold 4dB
param **.radio.receiver.bandwidth "22 MHz"
param **.radioMedium.analogModel.typename "\"ScalarAnalogModel\""
param **.errorModel.typename "\"Ieee80211YansErrorModel\""
param **.radioMedium.backgroundNoise.power -110dBm
param **.hasUdp true
param **.*Host*.numApps 1
param **.sinkNode.udp.typename "\"Udp\""
param **.sinkNode.numApps 1
param **.sinkNode.app[0].typename "\"UdpSink\""
param **.sinkNode.app[0].localPort 1000
param **.*Host[*].app[0].typename "\"UdpBasicApp\""
param **.*Host[*].app[0].destAddresses "\"sinkNode\""
param **.*Host[*].app[*].destPort 1000
param **.*Host[*].app[*].messageLength 100B
param **.*Host[*].app[*].sendInterval 1s
param **.*Host[*].wlan[*].mac.dcf.channelAccess.pendingQueue.packetCapacity 100
param **.*Host[*].wlan[*].mac.dcf.channelAccess.cwMax 1023
param **.*Host[*].wlan[*].mac.dcf.channelAccess.cwMin 15
param **.wlan[*].mac.dcf.recoveryProcedure.shortRetryLimit 7
param **.wlan[*].mac.dcf.rtsPolicy.rtsThreshold 1024B
param WiredAndWirelessHostsWithAP.num_wireless 0
param WiredAndWirelessHostsWithAP.num_wired 10

scalar WiredAndWirelessHostsWithAP.radioMedium.propagation "Arrival computation count" 0
scalar WiredAndWirelessHostsWithAP.radioMedium "transmission count" 401
scalar WiredAndWirelessHostsWithAP.radioMedium "signal send count" 0
scalar WiredAndWirelessHostsWithAP.radioMedium "reception computation count" 0
scalar WiredAndWirelessHostsWithAP.radioMedium "interference computation count" 402
scalar WiredAndWirelessHostsWithAP.radioMedium "reception decision computation count" 0
scalar WiredAndWirelessHostsWithAP.radioMedium "listening decision computation count" 402
scalar WiredAndWirelessHostsWithAP.radioMedium "reception cache hit" -nan
attr unit %
scalar WiredAndWirelessHostsWithAP.radioMedium "interference cache hit" -nan
attr unit %
scalar WiredAndWirelessHostsWithAP.radioMedium "noise cache hit" -nan
attr unit %
scalar WiredAndWirelessHostsWithAP.radioMedium "snir cache hit" -nan
attr unit %
scalar WiredAndWirelessHostsWithAP.radioMedium "reception decision cache hit" -nan
attr unit %
scalar WiredAndWirelessHostsWithAP.radioMedium "reception result cache hit" -nan
attr unit %
scalar WiredAndWirelessHostsWithAP.wiredHost[0].lo[0].lo rcvdPkFromHl:count 0
attr interpolationmode none
attr source packetReceivedFromUpper
attr title "packets received from higher layer, count"
scalar WiredAndWirelessHostsWithAP.wiredHost[0].lo[0].lo rcvdPkFromHl:sum(packetBytes) 0
attr interpolationmode none
attr source packetReceivedFromUpper
attr title "packets received from higher layer, sum(packetBytes)"
scalar WiredAndWirelessHostsWithAP.wiredHost[0].lo[0].lo passedUpPk:count 0
attr interpolationmode none
attr source packetSentToUpper
attr title "packets passed to higher layer, count"
scalar WiredAndWirelessHostsWithAP.wiredHost[0].lo[0].lo passedUpPk:sum(packetBytes) 0
attr interpolationmode none
attr source packetSentToUpper
attr title "packets passed to higher layer, sum(packetBytes)"
scalar WiredAndWirelessHostsWithAP.wiredHost[0].eth[0].mac.queue packetPopped:count 41
attr interpolationmode none
attr title "packet popped, count"
scalar WiredAndWirelessHostsWithAP.wiredHost[0].eth[0].mac.queue packetPopped:sum(packetBytes) 5904
attr interpolationmode none
attr title "packet popped, sum(packetBytes)"
statistic WiredAndWirelessHostsWithAP.wiredHost[0].eth[0].mac.queue queueingTime:histogram
field count 41
field mean 0
field stddev 0
field min 0
field max 0
field sum 0
field sqrsum 0
attr interpolationmode none
attr source queueingTime(packetPopped)
attr title "queueing times, histogram"
attr unit s
bin	-inf	0
bin	-0.5	0
bin	-0.48	0
bin	-0.46	0
bin	-0.44	0
bin	-0.42	0
bin	-0.4	0
bin	-0.38	0
bin	-0.36	0
bin	-0.34	0
bin	-0.32	0
bin	-0.3	0
bin	-0.28	0
bin	-0.26	0
bin	-0.24	0
bin	-0.22	0
bin	-0.2	0
bin	-0.18	0
bin	-0.16	0
bin	-0.14	0
bin	-0.12	0
bin	-0.1	0
bin	-0.08	0
bin	-0.06	0
bin	-0.04	0
bin	-0.02	0
bin	0	41
bin	0.02	0
bin	0.04	0
bin	0.06	0
bin	0.08	0
bin	0.1	0
bin	0.12	0
bin	0.14	0
bin	0.16	0
bin	0.18	0
bin	0.2	0
bin	0.22	0
bin	0.24	0
bin	0.26	0
bin	0.28	0
bin	0.3	0
bin	0.32	0
bin	0.34	0
bin	0.36	0
bin	0.38	0
bin	0.4	0
bin	0.42	0
bin	0.44	0
bin	0.46	0
bin	0.48	0
bin	0.5	0
scalar WiredAndWirelessHostsWithAP.wiredHost[0].eth[0].mac.queue queueLength:max 1
attr interpolationmode sample-hold
attr source "count(packetPushed) - count(packetPopped) - count(packetRemoved) - count(packetDropped)"
attr title "queue length, max"
scalar WiredAndWirelessHostsWithAP.wiredHost[0].eth[0].mac.queue queueLength:timeavg 0
attr interpolationmode sample-hold
attr source "count(packetPushed) - count(packetPopped) - count(packetRemoved) - count(packetDropped)"
attr title "queue length, timeavg"
scalar WiredAndWirelessHostsWithAP.wiredHost[0].eth[0].mac.queue packetPushed:count 41
attr interpolationmode none
attr title "packet pushed, count"
scalar WiredAndWirelessHostsWithAP.wiredHost[0].eth[0].mac.queue packetPushed:sum(packetBytes) 5904
attr interpolationmode none
attr title "packet pushed, sum(packetBytes)"
scalar WiredAndWirelessHostsWithAP.wiredHost[0].eth[0].mac.queue packetDropQueueOverflow:count 0
attr interpolationmode none
attr source packetDropReasonIsQueueOverflow(packetDropped)
attr title "packet drops: queue overflow, count"
scalar WiredAndWirelessHostsWithAP.wiredHost[0].eth[0].mac.queue packetDropQueueOverflow:sum(packetBytes) 0
attr interpolationmode none
attr source packetDropReasonIsQueueOverflow(packetDropped)
attr title "packet drops: queue overflow, sum(packetBytes)"
scalar WiredAndWirelessHostsWithAP.wiredHost[0].eth[0].mac.queue packetRemoved:count 0
attr interpolationmode none
attr title "packets removed, count"
scalar WiredAndWirelessHostsWithAP.wiredHost[0].eth[0].mac.queue packetRemoved:sum(packetBytes) 0
attr interpolationmode none
attr title "packets removed, sum(packetBytes)"
scalar WiredAndWirelessHostsWithAP.wiredHost[0].eth[0].mac "simulated time" 40
scalar WiredAndWirelessHostsWithAP.wiredHost[0].eth[0].mac full-duplex 1
scalar WiredAndWirelessHostsWithAP.wiredHost[0].eth[0].mac "frames/sec sent" 1
scalar WiredAndWirelessHostsWithAP.wiredHost[0].eth[0].mac "frames/sec rcvd" 0.025
scalar WiredAndWirelessHostsWithAP.wiredHost[0].eth[0].mac "bits/sec sent" 1151.6
scalar WiredAndWirelessHostsWithAP.wiredHost[0].eth[0].mac "bits/sec rcvd" 12.8
scalar WiredAndWirelessHostsWithAP.wiredHost[0].eth[0].mac "rx channel idle (%)" 100
scalar WiredAndWirelessHostsWithAP.wiredHost[0].eth[0].mac "rx channel utilization (%)" 0
scalar WiredAndWirelessHostsWithAP.wiredHost[0].eth[0].mac rxPausePkUnits:count 0
attr interpolationmode none
attr title "pause units received, count"
scalar WiredAndWirelessHostsWithAP.wiredHost[0].eth[0].mac rxPausePkUnits:sum 0
attr interpolationmode none
attr title "pause units received, sum"
scalar WiredAndWirelessHostsWithAP.wiredHost[0].eth[0].mac txPausePkUnits:count 0
attr interpolationmode none
attr title "pause units sent, count"
scalar WiredAndWirelessHostsWithAP.wiredHost[0].eth[0].mac txPausePkUnits:sum 0
attr interpolationmode none
attr title "pause units sent, sum"
scalar WiredAndWirelessHostsWithAP.wiredHost[0].eth[0].mac rxPkOk:count 1
attr interpolationmode none
attr source rxPkOk
attr title "packets received OK, count"
scalar WiredAndWirelessHostsWithAP.wiredHost[0].eth[0].mac rxPkOk:sum(packetBytes) 64
attr interpolationmode none
attr source rxPkOk
attr title "packets received OK, sum(packetBytes)"
scalar WiredAndWirelessHostsWithAP.wiredHost[0].eth[0].mac txPk:count 40
attr interpolationmode none
attr source packetSentToLower
attr title "packets transmitted, count"
scalar WiredAndWirelessHostsWithAP.wiredHost[0].eth[0].mac txPk:sum(packetBytes) 5758
attr interpolationmode none
attr source packetSentToLower
attr title "packets transmitted, sum(packetBytes)"
scalar WiredAndWirelessHostsWithAP.wiredHost[0].eth[0].mac packetReceivedFromUpper:count 41
attr interpolationmode none
attr source packetReceivedFromUpper
attr title "packet bytes from higher layer, count"
scalar WiredAndWirelessHostsWithAP.wiredHost[0].eth[0].mac packetReceivedFromUpper:sum(packetBytes) 5886
attr interpolationmode none
attr source packetReceivedFromUpper
attr title "packet bytes from higher layer, sum(packetBytes)"
scalar WiredAndWirelessHostsWithAP.wiredHost[0].eth[0].mac passedUpPk:count 1
attr interpolationmode none
attr source packetSentToUpper
attr title "packets passed to higher layer, count"
scalar WiredAndWirelessHostsWithAP.wiredHost[0].eth[0].mac passedUpPk:sum(packetBytes) 64
attr interpolationmode none
attr source packetSentToUpper
attr title "packets passed to higher layer, sum(packetBytes)"
scalar WiredAndWirelessHostsWithAP.wiredHost[0].eth[0].mac packetDropIncorrectlyReceived:count 0
attr interpolationmode none
attr source packetDropReasonIsIncorrectlyReceived(packetDropped)
attr title "packet drop: incorrectly received, count"
scalar WiredAndWirelessHostsWithAP.wiredHost[0].eth[0].mac packetDropIncorrectlyReceived:sum(packetBytes) 0
attr interpolationmode none
attr source packetDropReasonIsIncorrectlyReceived(packetDropped)
attr title "packet drop: incorrectly received, sum(packetBytes)"
scalar WiredAndWirelessHostsWithAP.wiredHost[0].eth[0].mac packetDropInterfaceDown:count 0
attr interpolationmode none
attr source packetDropReasonIsInterfaceDown(packetDropped)
attr title "packet drop: interface down, count"
scalar WiredAndWirelessHostsWithAP.wiredHost[0].eth[0].mac packetDropInterfaceDown:sum(packetBytes) 0
attr interpolationmode none
attr source packetDropReasonIsInterfaceDown(packetDropped)
attr title "packet drop: interface down, sum(packetBytes)"
scalar WiredAndWirelessHostsWithAP.wiredHost[0].eth[0].mac packetDropNotAddressedToUs:count 0
attr interpolationmode none
attr source packetDropReasonIsNotAddressedToUs(packetDropped)
attr title "packet drop: not addressed to us, count"
scalar WiredAndWirelessHostsWithAP.wiredHost[0].eth[0].mac packetDropNotAddressedToUs:sum(packetBytes) 0
attr interpolationmode none
attr source packetDropReasonIsNotAddressedToUs(packetDropped)
attr title "packet drop: not addressed to us, sum(packetBytes)"
scalar WiredAndWirelessHostsWithAP.wiredHost[0].eth[0].encap pauseSent:count 0
attr title "pause sent, count"
scalar WiredAndWirelessHostsWithAP.wiredHost[0].eth[0].encap pauseSent:sum 0
attr title "pause sent, sum"
scalar WiredAndWirelessHostsWithAP.wiredHost[0].eth[0].encap decapPk:count 1
attr interpolationmode none
attr source decapPk
attr title "packets decapsulated, count"
scalar WiredAndWirelessHostsWithAP.wiredHost[0].eth[0].encap decapPk:sum(packetBytes) 46
attr interpolationmode none
attr source decapPk
attr title "packets decapsulated, sum(packetBytes)"
scalar WiredAndWirelessHostsWithAP.wiredHost[0].eth[0].encap encapPk:count 41
attr interpolationmode none
attr source encapPk
attr title "packets encapsulated, count"
scalar WiredAndWirelessHostsWithAP.wiredHost[0].eth[0].encap encapPk:sum(packetBytes) 5148
attr interpolationmode none
attr source encapPk
attr title "packets encapsulated, sum(packetBytes)"
scalar WiredAndWirelessHostsWithAP.wiredHost[0].ipv4.ip packetDropAddressResolutionFailed:count 0
attr interpolationmode none
attr source packetDropReasonIsAddressResolutionFailed(packetDropped)
attr title "packet drop: address resolution failed, count"
scalar WiredAndWirelessHostsWithAP.wiredHost[0].ipv4.ip packetDropAddressResolutionFailed:sum(packetBytes) 0
attr interpolationmode none
attr source packetDropReasonIsAddressResolutionFailed(packetDropped)
attr title "packet drop: address resolution failed, sum(packetBytes)"
scalar WiredAndWirelessHostsWithAP.wiredHost[0].ipv4.ip packetDropHopLimitReached:count 0
attr interpolationmode none
attr source packetDropReasonIsHopLimitReached(packetDropped)
attr title "packet drop: hop limit reached, count"
scalar WiredAndWirelessHostsWithAP.wiredHost[0].ipv4.ip packetDropHopLimitReached:sum(packetBytes) 0
attr interpolationmode none
attr source packetDropReasonIsHopLimitReached(packetDropped)
attr title "packet drop: hop limit reached, sum(packetBytes)"
scalar WiredAndWirelessHostsWithAP.wiredHost[0].ipv4.ip packetDropForwardingDisabled:count 0
attr interpolationmode none
attr source packetDropReasonIsForwardingDisabled(packetDropped)
attr title "packet drop: forwarding disabled, count"
scalar WiredAndWirelessHostsWithAP.wiredHost[0].ipv4.ip packetDropForwardingDisabled:sum(packetBytes) 0
attr interpolationmode none
attr source packetDropReasonIsForwardingDisabled(packetDropped)
attr title "packet drop: forwarding disabled, sum(packetBytes)"
scalar WiredAndWirelessHostsWithAP.wiredHost[0].ipv4.ip packetDropNoInterfaceFound:count 0
attr interpolationmode none
attr source packetDropReasonIsNoInterfaceFound(packetDropped)
attr title "packet drop: no interface found, count"
scalar WiredAndWirelessHostsWithAP.wiredHost[0].ipv4.ip packetDropNoInterfaceFound:sum(packetBytes) 0
attr interpolationmode none
attr source packetDropReasonIsNoInterfaceFound(packetDropped)
attr title "packet drop: no interface found, sum(packetBytes)"
scalar WiredAndWirelessHostsWithAP.wiredHost[0].ipv4.ip packetDropNoRouteFound:count 0
attr interpolationmode none
attr source packetDropReasonIsNoRouteFound(packetDropped)
attr title "packet drop: no route found, count"
scalar WiredAndWirelessHostsWithAP.wiredHost[0].ipv4.ip packetDropNoRouteFound:sum(packetBytes) 0
attr interpolationmode none
attr source packetDropReasonIsNoRouteFound(packetDropped)
attr title "packet drop: no route found, sum(packetBytes)"
scalar WiredAndWirelessHostsWithAP.wiredHost[0].ipv4.ip packetDropUndefined:count 0
attr interpolationmode none
attr source packetDropReasonIsUndefined(packetDropped)
attr title "packet drop: undefined, count"
scalar WiredAndWirelessHostsWithAP.wiredHost[0].ipv4.ip packetDropUndefined:sum(packetBytes) 0
attr interpolationmode none
attr source packetDropReasonIsUndefined(packetDropped)
attr title "packet drop: undefined, sum(packetBytes)"
scalar WiredAndWirelessHostsWithAP.wiredHost[0].ipv4.arp arpResolutionFailed:count 0
attr title "ARP failed resolutions, count"
scalar WiredAndWirelessHostsWithAP.wiredHost[0].ipv4.arp arpResolutionCompleted:count 1
attr title "ARP completed resolutions, count"
scalar WiredAndWirelessHostsWithAP.wiredHost[0].ipv4.arp arpResolutionInitiated:count 1
attr title "ARP initiated resolutions, count"
scalar WiredAndWirelessHostsWithAP.wiredHost[0].ipv4.arp arpReplySent:count 0
attr source arpReplySent
attr title "ARP replies sent, count"
scalar WiredAndWirelessHostsWithAP.wiredHost[0].ipv4.arp arpReplySent:sum(packetBytes) 0
attr source arpReplySent
attr title "ARP replies sent, sum(packetBytes)"
scalar WiredAndWirelessHostsWithAP.wiredHost[0].ipv4.arp arpRequestSent:count 1
attr source arpRequestSent
attr title "ARP request sent, count"
scalar WiredAndWirelessHostsWithAP.wiredHost[0].ipv4.arp arpRequestSent:sum(packetBytes) 28
attr source arpRequestSent
attr title "ARP request sent, sum(packetBytes)"
scalar WiredAndWirelessHostsWithAP.wiredHost[0].udp packetReceived:count 0
attr interpolationmode none
attr source packetReceived
attr title "packets received, count"
scalar WiredAndWirelessHostsWithAP.wiredHost[0].udp packetReceived:sum(packetBytes) 0
attr interpolationmode none
attr source packetReceived
attr title "packets received, sum(packetBytes)"
scalar WiredAndWirelessHostsWithAP.wiredHost[0].udp packetSent:count 40
attr interpolationmode none
attr source packetSent
attr title "packets sent, count"
scalar WiredAndWirelessHostsWithAP.wiredHost[0].udp packetSent:sum(packetBytes) 4320
attr interpolationmode none
attr source packetSent
attr title "packets sent, sum(packetBytes)"
scalar WiredAndWirelessHostsWithAP.wiredHost[0].udp passedUpPk:count 0
attr interpolationmode none
attr source packetSentToUpper
attr title "packets passed up, count"
scalar WiredAndWirelessHostsWithAP.wiredHost[0].udp droppedPkWrongPort:count 0
attr interpolationmode none
attr source packetDropReasonIsNoPortFound(packetDropped)
attr title "packets dropped (wrong port), count"
scalar WiredAndWirelessHostsWithAP.wiredHost[0].udp droppedPkBadChecksum:count 0
attr interpolationmode none
attr source packetDropReasonIsIncorrectlyReceived(packetDropped)
attr title "packets dropped (checksum error), count"
scalar WiredAndWirelessHostsWithAP.wiredHost[0].app[0] "packets sent" 40
scalar WiredAndWirelessHostsWithAP.wiredHost[0].app[0] "packets received" 0
scalar WiredAndWirelessHostsWithAP.wiredHost[0].app[0] packetReceived:count 0
attr interpolationmode none
attr source packetReceived
attr title "packets received, count"
scalar WiredAndWirelessHostsWithAP.wiredHost[0].app[0] packetReceived:sum(packetBytes) 0
attr interpolationmode none
attr source packetReceived
attr title "packets received, sum(packetBytes)"
statistic WiredAndWirelessHostsWithAP.wiredHost[0].app[0] rcvdPkLifetime:stats
field count 0
field mean -nan
field stddev nan
field min nan
field max nan
field sum 0
field sqrsum 0
attr interpolationmode none
attr source dataAge(packetReceived)
attr title "received packet lifetime, stats"
attr unit s
scalar WiredAndWirelessHostsWithAP.wiredHost[0].app[0] packetSent:count 40
attr interpolationmode none
attr source packetSent
attr title "packets sent, count"
scalar WiredAndWirelessHostsWithAP.wiredHost[0].app[0] packetSent:sum(packetBytes) 4000
attr interpolationmode none
attr source packetSent
attr title "packets sent, sum(packetBytes)"
scalar WiredAndWirelessHostsWithAP.wiredHost[1].lo[0].lo rcvdPkFromHl:count 0
attr interpolationmode none
attr source packetReceivedFromUpper
attr title "packets received from higher layer, count"
scalar WiredAndWirelessHostsWithAP.wiredHost[1].lo[0].lo rcvdPkFromHl:sum(packetBytes) 0
attr interpolationmode none
attr source packetReceivedFromUpper
attr title "packets received from higher layer, sum(packetBytes)"
scalar WiredAndWirelessHostsWithAP.wiredHost[1].lo[0].lo passedUpPk:count 0
attr interpolationmode none
attr source packetSentToUpper
attr title "packets passed to higher layer, count"
scalar WiredAndWirelessHostsWithAP.wiredHost[1].lo[0].lo passedUpPk:sum(packetBytes) 0
attr interpolationmode none
attr source packetSentToUpper
attr title "packets passed to higher layer, sum(packetBytes)"
scalar WiredAndWirelessHostsWithAP.wiredHost[1].eth[0].mac.queue packetPopped:count 41
attr interpolationmode none
attr title "packet popped, count"
scalar WiredAndWirelessHostsWithAP.wiredHost[1].eth[0].mac.queue packetPopped:sum(packetBytes) 5904
attr interpolationmode none
attr title "packet popped, sum(packetBytes)"
statistic WiredAndWirelessHostsWithAP.wiredHost[1].eth[0].mac.queue queueingTime:histogram
field count 41
field mean 0
field stddev 0
field min 0
field max 0
field sum 0
field sqrsum 0
attr interpolationmode none
attr source queueingTime(packetPopped)
attr title "queueing times, histogram"
attr unit s
bin	-inf	0
bin	-0.5	0
bin	-0.48	0
bin	-0.46	0
bin	-0.44	0
bin	-0.42	0
bin	-0.4	0
bin	-0.38	0
bin	-0.36	0
bin	-0.34	0
bin	-0.32	0
bin	-0.3	0
bin	-0.28	0
bin	-0.26	0
bin	-0.24	0
bin	-0.22	0
bin	-0.2	0
bin	-0.18	0
bin	-0.16	0
bin	-0.14	0
bin	-0.12	0
bin	-0.1	0
bin	-0.08	0
bin	-0.06	0
bin	-0.04	0
bin	-0.02	0
bin	0	41
bin	0.02	0
bin	0.04	0
bin	0.06	0
bin	0.08	0
bin	0.1	0
bin	0.12	0
bin	0.14	0
bin	0.16	0
bin	0.18	0
bin	0.2	0
bin	0.22	0
bin	0.24	0
bin	0.26	0
bin	0.28	0
bin	0.3	0
bin	0.32	0
bin	0.34	0
bin	0.36	0
bin	0.38	0
bin	0.4	0
bin	0.42	0
bin	0.44	0
bin	0.46	0
bin	0.48	0
bin	0.5	0
scalar WiredAndWirelessHostsWithAP.wiredHost[1].eth[0].mac.queue queueLength:max 1
attr interpolationmode sample-hold
attr source "count(packetPushed) - count(packetPopped) - count(packetRemoved) - count(packetDropped)"
attr title "queue length, max"
scalar WiredAndWirelessHostsWithAP.wiredHost[1].eth[0].mac.queue queueLength:timeavg 0
attr interpolationmode sample-hold
attr source "count(packetPushed) - count(packetPopped) - count(packetRemoved) - count(packetDropped)"
attr title "queue length, timeavg"
scalar WiredAndWirelessHostsWithAP.wiredHost[1].eth[0].mac.queue packetPushed:count 41
attr interpolationmode none
attr title "packet pushed, count"
scalar WiredAndWirelessHostsWithAP.wiredHost[1].eth[0].mac.queue packetPushed:sum(packetBytes) 5904
attr interpolationmode none
attr title "packet pushed, sum(packetBytes)"
scalar WiredAndWirelessHostsWithAP.wiredHost[1].eth[0].mac.queue packetDropQueueOverflow:count 0
attr interpolationmode none
attr source packetDropReasonIsQueueOverflow(packetDropped)
attr title "packet drops: queue overflow, count"
scalar WiredAndWirelessHostsWithAP.wiredHost[1].eth[0].mac.queue packetDropQueueOverflow:sum(packetBytes) 0
attr interpolationmode none
attr source packetDropReasonIsQueueOverflow(packetDropped)
attr title "packet drops: queue overflow, sum(packetBytes)"
scalar WiredAndWirelessHostsWithAP.wiredHost[1].eth[0].mac.queue packetRemoved:count 0
attr interpolationmode none
attr title "packets removed, count"
scalar WiredAndWirelessHostsWithAP.wiredHost[1].eth[0].mac.queue packetRemoved:sum(packetBytes) 0
attr interpolationmode none
attr title "packets removed, sum(packetBytes)"
scalar WiredAndWirelessHostsWithAP.wiredHost[1].eth[0].mac "simulated time" 40
scalar WiredAndWirelessHostsWithAP.wiredHost[1].eth[0].mac full-duplex 1
scalar WiredAndWirelessHostsWithAP.wiredHost[1].eth[0].mac "frames/sec sent" 1
scalar WiredAndWirelessHostsWithAP.wiredHost[1].eth[0].mac "frames/sec rcvd" 0.025
scalar WiredAndWirelessHostsWithAP.wiredHost[1].eth[0].mac "bits/sec sent" 1151.6
scalar WiredAndWirelessHostsWithAP.wiredHost[1].eth[0].mac "bits/sec rcvd" 12.8
scalar WiredAndWirelessHostsWithAP.wiredHost[1].eth[0].mac "rx channel idle (%)" 100
scalar WiredAndWirelessHostsWithAP.wiredHost[1].eth[0].mac "rx channel utilization (%)" 0
scalar WiredAndWirelessHostsWithAP.wiredHost[1].eth[0].mac rxPausePkUnits:count 0
attr interpolationmode none
attr title "pause units received, count"
scalar WiredAndWirelessHostsWithAP.wiredHost[1].eth[0].mac rxPausePkUnits:sum 0
attr interpolationmode none
attr title "pause units received, sum"
scalar WiredAndWirelessHostsWithAP.wiredHost[1].eth[0].mac txPausePkUnits:count 0
attr interpolationmode none
attr title "pause units sent, count"
scalar WiredAndWirelessHostsWithAP.wiredHost[1].eth[0].mac txPausePkUnits:sum 0
attr interpolationmode none
attr title "pause units sent, sum"
scalar WiredAndWirelessHostsWithAP.wiredHost[1].eth[0].mac rxPkOk:count 1
attr interpolationmode none
attr source rxPkOk
attr title "packets received OK, count"
scalar WiredAndWirelessHostsWithAP.wiredHost[1].eth[0].mac rxPkOk:sum(packetBytes) 64
attr interpolationmode none
attr source rxPkOk
attr title "packets received OK, sum(packetBytes)"
scalar WiredAndWirelessHostsWithAP.wiredHost[1].eth[0].mac txPk:count 40
attr interpolationmode none
attr source packetSentToLower
attr title "packets transmitted, count"
scalar WiredAndWirelessHostsWithAP.wiredHost[1].eth[0].mac txPk:sum(packetBytes) 5758
attr interpolationmode none
attr source packetSentToLower
attr title "packets transmitted, sum(packetBytes)"
scalar WiredAndWirelessHostsWithAP.wiredHost[1].eth[0].mac packetReceivedFromUpper:count 41
attr interpolationmode none
attr source packetReceivedFromUpper
attr title "packet bytes from higher layer, count"
scalar WiredAndWirelessHostsWithAP.wiredHost[1].eth[0].mac packetReceivedFromUpper:sum(packetBytes) 5886
attr interpolationmode none
attr source packetReceivedFromUpper
attr title "packet bytes from higher layer, sum(packetBytes)"
scalar WiredAndWirelessHostsWithAP.wiredHost[1].eth[0].mac passedUpPk:count 1
attr interpolationmode none
attr source packetSentToUpper
attr title "packets passed to higher layer, count"
scalar WiredAndWirelessHostsWithAP.wiredHost[1].eth[0].mac passedUpPk:sum(packetBytes) 64
attr interpolationmode none
attr source packetSentToUpper
attr title "packets passed to higher layer, sum(packetBytes)"
scalar WiredAndWirelessHostsWithAP.wiredHost[1].eth[0].mac packetDropIncorrectlyReceived:count 0
attr interpolationmode none
attr source packetDropReasonIsIncorrectlyReceived(packetDropped)
attr title "packet drop: incorrectly received, count"
scalar WiredAndWirelessHostsWithAP.wiredHost[1].eth[0].mac packetDropIncorrectlyReceived:sum(packetBytes) 0
attr interpolationmode none
attr source packetDropReasonIsIncorrectlyReceived(packetDropped)
attr title "packet drop: incorrectly received, sum(packetBytes)"
scalar WiredAndWirelessHostsWithAP.wiredHost[1].eth[0].mac packetDropInterfaceDown:count 0
attr interpolationmode none
attr source packetDropReasonIsInterfaceDown(packetDropped)
attr title "packet drop: interface down, count"
scalar WiredAndWirelessHostsWithAP.wiredHost[1].eth[0].mac packetDropInterfaceDown:sum(packetBytes) 0
attr interpolationmode none
attr source packetDropReasonIsInterfaceDown(packetDropped)
attr title "packet drop: interface down, sum(packetBytes)"
scalar WiredAndWirelessHostsWithAP.wiredHost[1].eth[0].mac packetDropNotAddressedToUs:count 0
attr interpolationmode none
attr source packetDropReasonIsNotAddressedToUs(packetDropped)
attr title "packet drop: not addressed to us, count"
scalar WiredAndWirelessHostsWithAP.wiredHost[1].eth[0].mac packetDropNotAddressedToUs:sum(packetBytes) 0
attr interpolationmode none
attr source packetDropReasonIsNotAddressedToUs(packetDropped)
attr title "packet drop: not addressed to us, sum(packetBytes)"
scalar WiredAndWirelessHostsWithAP.wiredHost[1].eth[0].encap pauseSent:count 0
attr title "pause sent, count"
scalar WiredAndWirelessHostsWithAP.wiredHost[1].eth[0].encap pauseSent:sum 0
attr title "pause sent, sum"
scalar WiredAndWirelessHostsWithAP.wiredHost[1].eth[0].encap decapPk:count 1
attr interpolationmode none
attr source decapPk
attr title "packets decapsulated, count"
scalar WiredAndWirelessHostsWithAP.wiredHost[1].eth[0].encap decapPk:sum(packetBytes) 46
attr interpolationmode none
attr source decapPk
attr title "packets decapsulated, sum(packetBytes)"
scalar WiredAndWirelessHostsWithAP.wiredHost[1].eth[0].encap encapPk:count 41
attr interpolationmode none
attr source encapPk
attr title "packets encapsulated, count"
scalar WiredAndWirelessHostsWithAP.wiredHost[1].eth[0].encap encapPk:sum(packetBytes) 5148
attr interpolationmode none
attr source encapPk
attr title "packets encapsulated, sum(packetBytes)"
scalar WiredAndWirelessHostsWithAP.wiredHost[1].ipv4.ip packetDropAddressResolutionFailed:count 0
attr interpolationmode none
attr source packetDropReasonIsAddressResolutionFailed(packetDropped)
attr title "packet drop: address resolution failed, count"
scalar WiredAndWirelessHostsWithAP.wiredHost[1].ipv4.ip packetDropAddressResolutionFailed:sum(packetBytes) 0
attr interpolationmode none
attr source packetDropReasonIsAddressResolutionFailed(packetDropped)
attr title "packet drop: address resolution failed, sum(packetBytes)"
scalar WiredAndWirelessHostsWithAP.wiredHost[1].ipv4.ip packetDropHopLimitReached:count 0
attr interpolationmode none
attr source packetDropReasonIsHopLimitReached(packetDropped)
attr title "packet drop: hop limit reached, count"
scalar WiredAndWirelessHostsWithAP.wiredHost[1].ipv4.ip packetDropHopLimitReached:sum(packetBytes) 0
attr interpolationmode none
attr source packetDropReasonIsHopLimitReached(packetDropped)
attr title "packet drop: hop limit reached, sum(packetBytes)"
scalar WiredAndWirelessHostsWithAP.wiredHost[1].ipv4.ip packetDropForwardingDisabled:count 0
attr interpolationmode none
attr source packetDropReasonIsForwardingDisabled(packetDropped)
attr title "packet drop: forwarding disabled, count"
scalar WiredAndWirelessHostsWithAP.wiredHost[1].ipv4.ip packetDropForwardingDisabled:sum(packetBytes) 0
attr interpolationmode none
attr source packetDropReasonIsForwardingDisabled(packetDropped)
attr title "packet drop: forwarding disabled, sum(packetBytes)"
scalar WiredAndWirelessHostsWithAP.wiredHost[1].ipv4.ip packetDropNoInterfaceFound:count 0
attr interpolationmode none
attr source packetDropReasonIsNoInterfaceFound(packetDropped)
attr title "packet drop: no interface found, count"
scalar WiredAndWirelessHostsWithAP.wiredHost[1].ipv4.ip packetDropNoInterfaceFound:sum(packetBytes) 0
attr interpolationmode none
attr source packetDropReasonIsNoInterfaceFound(packetDropped)
attr title "packet drop: no interface found, sum(packetBytes)"
scalar WiredAndWirelessHostsWithAP.wiredHost[1].ipv4.ip packetDropNoRouteFound:count 0
attr interpolationmode none
attr source packetDropReasonIsNoRouteFound(packetDropped)
attr title "packet drop: no route found, count"
scalar WiredAndWirelessHostsWithAP.wiredHost[1].ipv4.ip packetDropNoRouteFound:sum(packetBytes) 0
attr interpolationmode none
attr source packetDropReasonIsNoRouteFound(packetDropped)
attr title "packet drop: no route found, sum(packetBytes)"
scalar WiredAndWirelessHostsWithAP.wiredHost[1].ipv4.ip packetDropUndefined:count 0
attr interpolationmode none
attr source packetDropReasonIsUndefined(packetDropped)
attr title "packet drop: undefined, count"
scalar WiredAndWirelessHostsWithAP.wiredHost[1].ipv4.ip packetDropUndefined:sum(packetBytes) 0
attr interpolationmode none
attr source packetDropReasonIsUndefined(packetDropped)
attr title "packet drop: undefined, sum(packetBytes)"
scalar WiredAndWirelessHostsWithAP.wiredHost[1].ipv4.arp arpResolutionFailed:count 0
attr title "ARP failed resolutions, count"
scalar WiredAndWirelessHostsWithAP.wiredHost[1].ipv4.arp arpResolutionCompleted:count 1
attr title "ARP completed resolutions, count"
scalar WiredAndWirelessHostsWithAP.wiredHost[1].ipv4.arp arpResolutionInitiated:count 1
attr title "ARP initiated resolutions, count"
scalar WiredAndWirelessHostsWithAP.wiredHost[1].ipv4.arp arpReplySent:count 0
attr source arpReplySent
attr title "ARP replies sent, count"
scalar WiredAndWirelessHostsWithAP.wiredHost[1].ipv4.arp arpReplySent:sum(packetBytes) 0
attr source arpReplySent
attr title "ARP replies sent, sum(packetBytes)"
scalar WiredAndWirelessHostsWithAP.wiredHost[1].ipv4.arp arpRequestSent:count 1
attr source arpRequestSent
attr title "ARP request sent, count"
scalar WiredAndWirelessHostsWithAP.wiredHost[1].ipv4.arp arpRequestSent:sum(packetBytes) 28
attr source arpRequestSent
attr title "ARP request sent, sum(packetBytes)"
scalar WiredAndWirelessHostsWithAP.wiredHost[1].udp packetReceived:count 0
attr interpolationmode none
attr source packetReceived
attr title "packets received, count"
scalar WiredAndWirelessHostsWithAP.wiredHost[1].udp packetReceived:sum(packetBytes) 0
attr interpolationmode none
attr source packetReceived
attr title "packets received, sum(packetBytes)"
scalar WiredAndWirelessHostsWithAP.wiredHost[1].udp packetSent:count 40
attr interpolationmode none
attr source packetSent
attr title "packets sent, count"
scalar WiredAndWirelessHostsWithAP.wiredHost[1].udp packetSent:sum(packetBytes) 4320
attr interpolationmode none
attr source packetSent
attr title "packets sent, sum(packetBytes)"
scalar WiredAndWirelessHostsWithAP.wiredHost[1].udp passedUpPk:count 0
attr interpolationmode none
attr source packetSentToUpper
attr title "packets passed up, count"
scalar WiredAndWirelessHostsWithAP.wiredHost[1].udp droppedPkWrongPort:count 0
attr interpolationmode none
attr source packetDropReasonIsNoPortFound(packetDropped)
attr title "packets dropped (wrong port), count"
scalar WiredAndWirelessHostsWithAP.wiredHost[1].udp droppedPkBadChecksum:count 0
attr interpolationmode none
attr source packetDropReasonIsIncorrectlyReceived(packetDropped)
attr title "packets dropped (checksum error), count"
scalar WiredAndWirelessHostsWithAP.wiredHost[1].app[0] "packets sent" 40
scalar WiredAndWirelessHostsWithAP.wiredHost[1].app[0] "packets received" 0
scalar WiredAndWirelessHostsWithAP.wiredHost[1].app[0] packetReceived:count 0
attr interpolationmode none
attr source packetReceived
attr title "packets received, count"
scalar WiredAndWirelessHostsWithAP.wiredHost[1].app[0] packetReceived:sum(packetBytes) 0
attr interpolationmode none
attr source packetReceived
attr title "packets received, sum(packetBytes)"
statistic WiredAndWirelessHostsWithAP.wiredHost[1].app[0] rcvdPkLifetime:stats
field count 0
field mean -nan
field stddev nan
field min nan
field max nan
field sum 0
field sqrsum 0
attr interpolationmode none
attr source dataAge(packetReceived)
attr title "received packet lifetime, stats"
attr unit s
scalar WiredAndWirelessHostsWithAP.wiredHost[1].app[0] packetSent:count 40
attr interpolationmode none
attr source packetSent
attr title "packets sent, count"
scalar WiredAndWirelessHostsWithAP.wiredHost[1].app[0] packetSent:sum(packetBytes) 4000
attr interpolationmode none
attr source packetSent
attr title "packets sent, sum(packetBytes)"
scalar WiredAndWirelessHostsWithAP.wiredHost[2].lo[0].lo rcvdPkFromHl:count 0
attr interpolationmode none
attr source packetReceivedFromUpper
attr title "packets received from higher layer, count"
scalar WiredAndWirelessHostsWithAP.wiredHost[2].lo[0].lo rcvdPkFromHl:sum(packetBytes) 0
attr interpolationmode none
attr source packetReceivedFromUpper
attr title "packets received from higher layer, sum(packetBytes)"
scalar WiredAndWirelessHostsWithAP.wiredHost[2].lo[0].lo passedUpPk:count 0
attr interpolationmode none
attr source packetSentToUpper
attr title "packets passed to higher layer, count"
scalar WiredAndWirelessHostsWithAP.wiredHost[2].lo[0].lo passedUpPk:sum(packetBytes) 0
attr interpolationmode none
attr source packetSentToUpper
attr title "packets passed to higher layer, sum(packetBytes)"
scalar WiredAndWirelessHostsWithAP.wiredHost[2].eth[0].mac.queue packetPopped:count 41
attr interpolationmode none
attr title "packet popped, count"
scalar WiredAndWirelessHostsWithAP.wiredHost[2].eth[0].mac.queue packetPopped:sum(packetBytes) 5904
attr interpolationmode none
attr title "packet popped, sum(packetBytes)"
statistic WiredAndWirelessHostsWithAP.wiredHost[2].eth[0].mac.queue queueingTime:histogram
field count 41
field mean 0
field stddev 0
field min 0
field max 0
field sum 0
field sqrsum 0
attr interpolationmode none
attr source queueingTime(packetPopped)
attr title "queueing times, histogram"
attr unit s
bin	-inf	0
bin	-0.5	0
bin	-0.48	0
bin	-0.46	0
bin	-0.44	0
bin	-0.42	0
bin	-0.4	0
bin	-0.38	0
bin	-0.36	0
bin	-0.34	0
bin	-0.32	0
bin	-0.3	0
bin	-0.28	0
bin	-0.26	0
bin	-0.24	0
bin	-0.22	0
bin	-0.2	0
bin	-0.18	0
bin	-0.16	0
bin	-0.14	0
bin	-0.12	0
bin	-0.1	0
bin	-0.08	0
bin	-0.06	0
bin	-0.04	0
bin	-0.02	0
bin	0	41
bin	0.02	0
bin	0.04	0
bin	0.06	0
bin	0.08	0
bin	0.1	0
bin	0.12	0
bin	0.14	0
bin	0.16	0
bin	0.18	0
bin	0.2	0
bin	0.22	0
bin	0.24	0
bin	0.26	0
bin	0.28	0
bin	0.3	0
bin	0.32	0
bin	0.34	0
bin	0.36	0
bin	0.38	0
bin	0.4	0
bin	0.42	0
bin	0.44	0
bin	0.46	0
bin	0.48	0
bin	0.5	0
scalar WiredAndWirelessHostsWithAP.wiredHost[2].eth[0].mac.queue queueLength:max 1
attr interpolationmode sample-hold
attr source "count(packetPushed) - count(packetPopped) - count(packetRemoved) - count(packetDropped)"
attr title "queue length, max"
scalar WiredAndWirelessHostsWithAP.wiredHost[2].eth[0].mac.queue queueLength:timeavg 0
attr interpolationmode sample-hold
attr source "count(packetPushed) - count(packetPopped) - count(packetRemoved) - count(packetDropped)"
attr title "queue length, timeavg"
scalar WiredAndWirelessHostsWithAP.wiredHost[2].eth[0].mac.queue packetPushed:count 41
attr interpolationmode none
attr title "packet pushed, count"
scalar WiredAndWirelessHostsWithAP.wiredHost[2].eth[0].mac.queue packetPushed:sum(packetBytes) 5904
attr interpolationmode none
attr title "packet pushed, sum(packetBytes)"
scalar WiredAndWirelessHostsWithAP.wiredHost[2].eth[0].mac.queue packetDropQueueOverflow:count 0
attr interpolationmode none
attr source packetDropReasonIsQueueOverflow(packetDropped)
attr title "packet drops: queue overflow, count"
scalar WiredAndWirelessHostsWithAP.wiredHost[2].eth[0].mac.queue packetDropQueueOverflow:sum(packetBytes) 0
attr interpolationmode none
attr source packetDropReasonIsQueueOverflow(packetDropped)
attr title "packet drops: queue overflow, sum(packetBytes)"
scalar WiredAndWirelessHostsWithAP.wiredHost[2].eth[0].mac.queue packetRemoved:count 0
attr interpolationmode none
attr title "packets removed, count"
scalar WiredAndWirelessHostsWithAP.wiredHost[2].eth[0].mac.queue packetRemoved:sum(packetBytes) 0
attr interpolationmode none
attr title "packets removed, sum(packetBytes)"
scalar WiredAndWirelessHostsWithAP.wiredHost[2].eth[0].mac "simulated time" 40
scalar WiredAndWirelessHostsWithAP.wiredHost[2].eth[0].mac full-duplex 1
scalar WiredAndWirelessHostsWithAP.wiredHost[2].eth[0].mac "frames/sec sent" 1
scalar WiredAndWirelessHostsWithAP.wiredHost[2].eth[0].mac "frames/sec rcvd" 0.025
scalar WiredAndWirelessHostsWithAP.wiredHost[2].eth[0].mac "bits/sec sent" 1151.6
scalar WiredAndWirelessHostsWithAP.wiredHost[2].eth[0].mac "bits/sec rcvd" 12.8
scalar WiredAndWirelessHostsWithAP.wiredHost[2].eth[0].mac "rx channel idle (%)" 100
scalar WiredAndWirelessHostsWithAP.wiredHost[2].eth[0].mac "rx channel utilization (%)" 0
scalar WiredAndWirelessHostsWithAP.wiredHost[2].eth[0].mac rxPausePkUnits:count 0
attr interpolationmode none
attr title "pause units received, count"
scalar WiredAndWirelessHostsWithAP.wiredHost[2].eth[0].mac rxPausePkUnits:sum 0
attr interpolationmode none
attr title "pause units received, sum"
scalar WiredAndWirelessHostsWithAP.wiredHost[2].eth[0].mac txPausePkUnits:count 0
attr interpolationmode none
attr title "pause units sent, count"
scalar WiredAndWirelessHostsWithAP.wiredHost[2].eth[0].mac txPausePkUnits:sum 0
attr interpolationmode none
attr title "pause units sent, sum"
scalar WiredAndWirelessHostsWithAP.wiredHost[2].eth[0].mac rxPkOk:count 1
attr interpolationmode none
attr source rxPkOk
attr title "packets received OK, count"
scalar WiredAndWirelessHostsWithAP.wiredHost[2].eth[0].mac rxPkOk:sum(packetBytes) 64
attr interpolationmode none
attr source rxPkOk
attr title "packets received OK, sum(packetBytes)"
scalar WiredAndWirelessHostsWithAP.wiredHost[2].eth[0].mac txPk:count 40
attr interpolationmode none
attr source packetSentToLower
attr title "packets transmitted, count"
scalar WiredAndWirelessHostsWithAP.wiredHost[2].eth[0].mac txPk:sum(packetBytes) 5758
attr interpolationmode none
attr source packetSentToLower
attr title "packets transmitted, sum(packetBytes)"
scalar WiredAndWirelessHostsWithAP.wiredHost[2].eth[0].mac packetReceivedFromUpper:count 41
attr interpolationmode none
attr source packetReceivedFromUpper
attr title "packet bytes from higher layer, count"
scalar WiredAndWirelessHostsWithAP.wiredHost[2].eth[0].mac packetReceivedFromUpper:sum(packetBytes) 5886
attr interpolationmode none
attr source packetReceivedFromUpper
attr title "packet bytes from higher layer, sum(packetBytes)"
scalar WiredAndWirelessHostsWithAP.wiredHost[2].eth[0].mac passedUpPk:count 1
attr interpolationmode none
attr source packetSentToUpper
attr title "packets passed to higher layer, count"
scalar WiredAndWirelessHostsWithAP.wiredHost[2].eth[0].mac passedUpPk:sum(packetBytes) 64
attr interpolationmode none
attr source packetSentToUpper
attr title "packets passed to higher layer, sum(packetBytes)"
scalar WiredAndWirelessHostsWithAP.wiredHost[2].eth[0].mac packetDropIncorrectlyReceived:count 0
attr interpolationmode none
attr source packetDropReasonIsIncorrectlyReceived(packetDropped)
attr title "packet drop: incorrectly received, count"
scalar WiredAndWirelessHostsWithAP.wiredHost[2].eth[0].mac packetDropIncorrectlyReceived:sum(packetBytes) 0
attr interpolationmode none
attr source packetDropReasonIsIncorrectlyReceived(packetDropped)
attr title "packet drop: incorrectly received, sum(packetBytes)"
scalar WiredAndWirelessHostsWithAP.wiredHost[2].eth[0].mac packetDropInterfaceDown:count 0
attr interpolationmode none
attr source packetDropReasonIsInterfaceDown(packetDropped)
attr title "packet drop: interface down, count"
scalar WiredAndWirelessHostsWithAP.wiredHost[2].eth[0].mac packetDropInterfaceDown:sum(packetBytes) 0
attr interpolationmode none
attr source packetDropReasonIsInterfaceDown(packetDropped)
attr title "packet drop: interface down, sum(packetBytes)"
scalar WiredAndWirelessHostsWithAP.wiredHost[2].eth[0].mac packetDropNotAddressedToUs:count 0
attr interpolationmode none
attr source packetDropReasonIsNotAddressedToUs(packetDropped)
attr title "packet drop: not addressed to us, count"
scalar WiredAndWirelessHostsWithAP.wiredHost[2].eth[0].mac packetDropNotAddressedToUs:sum(packetBytes) 0
attr interpolationmode none
attr source packetDropReasonIsNotAddressedToUs(packetDropped)
attr title "packet drop: not addressed to us, sum(packetBytes)"
scalar WiredAndWirelessHostsWithAP.wiredHost[2].eth[0].encap pauseSent:count 0
attr title "pause sent, count"
scalar WiredAndWirelessHostsWithAP.wiredHost[2].eth[0].encap pauseSent:sum 0
attr title "pause sent, sum"
scalar WiredAndWirelessHostsWithAP.wiredHost[2].eth[0].encap decapPk:count 1
attr interpolationmode none
attr source decapPk
attr title "packets decapsulated, count"
scalar WiredAndWirelessHostsWithAP.wiredHost[2].eth[0].encap decapPk:sum(packetBytes) 46
attr interpolationmode none
attr source decapPk
attr title "packets decapsulated, sum(packetBytes)"
scalar WiredAndWirelessHostsWithAP.wiredHost[2].eth[0].encap encapPk:count 41
attr interpolationmode none
attr source encapPk
attr title "packets encapsulated, count"
scalar WiredAndWirelessHostsWithAP.wiredHost[2].eth[0].encap encapPk:sum(packetBytes) 5148
attr interpolationmode none
attr source encapPk
attr title "packets encapsulated, sum(packetBytes)"
scalar WiredAndWirelessHostsWithAP.wiredHost[2].ipv4.ip packetDropAddressResolutionFailed:count 0
attr interpolationmode none
attr source packetDropReasonIsAddressResolutionFailed(packetDropped)
attr title "packet drop: address resolution failed, count"
scalar WiredAndWirelessHostsWithAP.wiredHost[2].ipv4.ip packetDropAddressResolutionFailed:sum(packetBytes) 0
attr interpolationmode none
attr source packetDropReasonIsAddressResolutionFailed(packetDropped)
attr title "packet drop: address resolution failed, sum(packetBytes)"
scalar WiredAndWirelessHostsWithAP.wiredHost[2].ipv4.ip packetDropHopLimitReached:count 0
attr interpolationmode none
attr source packetDropReasonIsHopLimitReached(packetDropped)
attr title "packet drop: hop limit reached, count"
scalar WiredAndWirelessHostsWithAP.wiredHost[2].ipv4.ip packetDropHopLimitReached:sum(packetBytes) 0
attr interpolationmode none
attr source packetDropReasonIsHopLimitReached(packetDropped)
attr title "packet drop: hop limit reached, sum(packetBytes)"
scalar WiredAndWirelessHostsWithAP.wiredHost[2].ipv4.ip packetDropForwardingDisabled:count 0
attr interpolationmode none
attr source packetDropReasonIsForwardingDisabled(packetDropped)
attr title "packet drop: forwarding disabled, count"
scalar WiredAndWirelessHostsWithAP.wiredHost[2].ipv4.ip packetDropForwardingDisabled:sum(packetBytes) 0
attr interpolationmode none
attr source packetDropReasonIsForwardingDisabled(packetDropped)
attr title "packet drop: forwarding disabled, sum(packetBytes)"
scalar WiredAndWirelessHostsWithAP.wiredHost[2].ipv4.ip packetDropNoInterfaceFound:count 0
attr interpolationmode none
attr source packetDropReasonIsNoInterfaceFound(packetDropped)
attr title "packet drop: no interface found, count"
scalar WiredAndWirelessHostsWithAP.wiredHost[2].ipv4.ip packetDropNoInterfaceFound:sum(packetBytes) 0
attr interpolationmode none
attr source packetDropReasonIsNoInterfaceFound(packetDropped)
attr title "packet drop: no interface found, sum(packetBytes)"
scalar WiredAndWirelessHostsWithAP.wiredHost[2].ipv4.ip packetDropNoRouteFound:count 0
attr interpolationmode none
attr source packetDropReasonIsNoRouteFound(packetDropped)
attr title "packet drop: no route found, count"
scalar WiredAndWirelessHostsWithAP.wiredHost[2].ipv4.ip packetDropNoRouteFound:sum(packetBytes) 0
attr interpolationmode none
attr source packetDropReasonIsNoRouteFound(packetDropped)
attr title "packet drop: no route found, sum(packetBytes)"
scalar WiredAndWirelessHostsWithAP.wiredHost[2].ipv4.ip packetDropUndefined:count 0
attr interpolationmode none
attr source packetDropReasonIsUndefined(packetDropped)
attr title "packet drop: undefined, count"
scalar WiredAndWirelessHostsWithAP.wiredHost[2].ipv4.ip packetDropUndefined:sum(packetBytes) 0
attr interpolationmode none
attr source packetDropReasonIsUndefined(packetDropped)
attr title "packet drop: undefined, sum(packetBytes)"
scalar WiredAndWirelessHostsWithAP.wiredHost[2].ipv4.arp arpResolutionFailed:count 0
attr title "ARP failed resolutions, count"
scalar WiredAndWirelessHostsWithAP.wiredHost[2].ipv4.arp arpResolutionCompleted:count 1
attr title "ARP completed resolutions, count"
scalar WiredAndWirelessHostsWithAP.wiredHost[2].ipv4.arp arpResolutionInitiated:count 1
attr title "ARP initiated resolutions, count"
scalar WiredAndWirelessHostsWithAP.wiredHost[2].ipv4.arp arpReplySent:count 0
attr source arpReplySent
attr title "ARP replies sent, count"
scalar WiredAndWirelessHostsWithAP.wiredHost[2].ipv4.arp arpReplySent:sum(packetBytes) 0
attr source arpReplySent
attr title "ARP replies sent, sum(packetBytes)"
scalar WiredAndWirelessHostsWithAP.wiredHost[2].ipv4.arp arpRequestSent:count 1
attr source arpRequestSent
attr title "ARP request sent, count"
scalar WiredAndWirelessHostsWithAP.wiredHost[2].ipv4.arp arpRequestSent:sum(packetBytes) 28
attr source arpRequestSent
attr title "ARP request sent, sum(packetBytes)"
scalar WiredAndWirelessHostsWithAP.wiredHost[2].udp packetReceived:count 0
attr interpolationmode none
attr source packetReceived
attr title "packets received, count"
scalar WiredAndWirelessHostsWithAP.wiredHost[2].udp packetReceived:sum(packetBytes) 0
attr interpolationmode none
attr source packetReceived
attr title "packets received, sum(packetBytes)"
scalar WiredAndWirelessHostsWithAP.wiredHost[2].udp packetSent:count 40
attr interpolationmode none
attr source packetSent
attr title "packets sent, count"
scalar WiredAndWirelessHostsWithAP.wiredHost[2].udp packetSent:sum(packetBytes) 4320
attr interpolationmode none
attr source packetSent
attr title "packets sent, sum(packetBytes)"
scalar WiredAndWirelessHostsWithAP.wiredHost[2].udp passedUpPk:count 0
attr interpolationmode none
attr source packetSentToUpper
attr title "packets passed up, count"
scalar WiredAndWirelessHostsWithAP.wiredHost[2].udp droppedPkWrongPort:count 0
attr interpolationmode none
attr source packetDropReasonIsNoPortFound(packetDropped)
attr title "packets dropped (wrong port), count"
scalar WiredAndWirelessHostsWithAP.wiredHost[2].udp droppedPkBadChecksum:count 0
attr interpolationmode none
attr source packetDropReasonIsIncorrectlyReceived(packetDropped)
attr title "packets dropped (checksum error), count"
scalar WiredAndWirelessHostsWithAP.wiredHost[2].app[0] "packets sent" 40
scalar WiredAndWirelessHostsWithAP.wiredHost[2].app[0] "packets received" 0
scalar WiredAndWirelessHostsWithAP.wiredHost[2].app[0] packetReceived:count 0
attr interpolationmode none
attr source packetReceived
attr title "packets received, count"
scalar WiredAndWirelessHostsWithAP.wiredHost[2].app[0] packetReceived:sum(packetBytes) 0
attr interpolationmode none
attr source packetReceived
attr title "packets received, sum(packetBytes)"
statistic WiredAndWirelessHostsWithAP.wiredHost[2].app[0] rcvdPkLifetime:stats
field count 0
field mean -nan
field stddev nan
field min nan
field max nan
field sum 0
field sqrsum 0
attr interpolationmode none
attr source dataAge(packetReceived)
attr title "received packet lifetime, stats"
attr unit s
scalar WiredAndWirelessHostsWithAP.wiredHost[2].app[0] packetSent:count 40
attr interpolationmode none
attr source packetSent
attr title "packets sent, count"
scalar WiredAndWirelessHostsWithAP.wiredHost[2].app[0] packetSent:sum(packetBytes) 4000
attr interpolationmode none
attr source packetSent
attr title "packets sent, sum(packetBytes)"
scalar WiredAndWirelessHostsWithAP.wiredHost[3].lo[0].lo rcvdPkFromHl:count 0
attr interpolationmode none
attr source packetReceivedFromUpper
attr title "packets received from higher layer, count"
scalar WiredAndWirelessHostsWithAP.wiredHost[3].lo[0].lo rcvdPkFromHl:sum(packetBytes) 0
attr interpolationmode none
attr source packetReceivedFromUpper
attr title "packets received from higher layer, sum(packetBytes)"
scalar WiredAndWirelessHostsWithAP.wiredHost[3].lo[0].lo passedUpPk:count 0
attr interpolationmode none
attr source packetSentToUpper
attr title "packets passed to higher layer, count"
scalar WiredAndWirelessHostsWithAP.wiredHost[3].lo[0].lo passedUpPk:sum(packetBytes) 0
attr interpolationmode none
attr source packetSentToUpper
attr title "packets passed to higher layer, sum(packetBytes)"
scalar WiredAndWirelessHostsWithAP.wiredHost[3].eth[0].mac.queue packetPopped:count 41
attr interpolationmode none
attr title "packet popped, count"
scalar WiredAndWirelessHostsWithAP.wiredHost[3].eth[0].mac.queue packetPopped:sum(packetBytes) 5904
attr interpolationmode none
attr title "packet popped, sum(packetBytes)"
statistic WiredAndWirelessHostsWithAP.wiredHost[3].eth[0].mac.queue queueingTime:histogram
field count 41
field mean 0
field stddev 0
field min 0
field max 0
field sum 0
field sqrsum 0
attr interpolationmode none
attr source queueingTime(packetPopped)
attr title "queueing times, histogram"
attr unit s
bin	-inf	0
bin	-0.5	0
bin	-0.48	0
bin	-0.46	0
bin	-0.44	0
bin	-0.42	0
bin	-0.4	0
bin	-0.38	0
bin	-0.36	0
bin	-0.34	0
bin	-0.32	0
bin	-0.3	0
bin	-0.28	0
bin	-0.26	0
bin	-0.24	0
bin	-0.22	0
bin	-0.2	0
bin	-0.18	0
bin	-0.16	0
bin	-0.14	0
bin	-0.12	0
bin	-0.1	0
bin	-0.08	0
bin	-0.06	0
bin	-0.04	0
bin	-0.02	0
bin	0	41
bin	0.02	0
bin	0.04	0
bin	0.06	0
bin	0.08	0
bin	0.1	0
bin	0.12	0
bin	0.14	0
bin	0.16	0
bin	0.18	0
bin	0.2	0
bin	0.22	0
bin	0.24	0
bin	0.26	0
bin	0.28	0
bin	0.3	0
bin	0.32	0
bin	0.34	0
bin	0.36	0
bin	0.38	0
bin	0.4	0
bin	0.42	0
bin	0.44	0
bin	0.46	0
bin	0.48	0
bin	0.5	0
scalar WiredAndWirelessHostsWithAP.wiredHost[3].eth[0].mac.queue queueLength:max 1
attr interpolationmode sample-hold
attr source "count(packetPushed) - count(packetPopped) - count(packetRemoved) - count(packetDropped)"
attr title "queue length, max"
scalar WiredAndWirelessHostsWithAP.wiredHost[3].eth[0].mac.queue queueLength:timeavg 0
attr interpolationmode sample-hold
attr source "count(packetPushed) - count(packetPopped) - count(packetRemoved) - count(packetDropped)"
attr title "queue length, timeavg"
scalar WiredAndWirelessHostsWithAP.wiredHost[3].eth[0].mac.queue packetPushed:count 41
attr interpolationmode none
attr title "packet pushed, count"
scalar WiredAndWirelessHostsWithAP.wiredHost[3].eth[0].mac.queue packetPushed:sum(packetBytes) 5904
attr interpolationmode none
attr title "packet pushed, sum(packetBytes)"
scalar WiredAndWirelessHostsWithAP.wiredHost[3].eth[0].mac.queue packetDropQueueOverflow:count 0
attr interpolationmode none
attr source packetDropReasonIsQueueOverflow(packetDropped)
attr title "packet drops: queue overflow, count"
scalar WiredAndWirelessHostsWithAP.wiredHost[3].eth[0].mac.queue packetDropQueueOverflow:sum(packetBytes) 0
attr interpolationmode none
attr source packetDropReasonIsQueueOverflow(packetDropped)
attr title "packet drops: queue overflow, sum(packetBytes)"
scalar WiredAndWirelessHostsWithAP.wiredHost[3].eth[0].mac.queue packetRemoved:count 0
attr interpolationmode none
attr title "packets removed, count"
scalar WiredAndWirelessHostsWithAP.wiredHost[3].eth[0].mac.queue packetRemoved:sum(packetBytes) 0
attr interpolationmode none
attr title "packets removed, sum(packetBytes)"
scalar WiredAndWirelessHostsWithAP.wiredHost[3].eth[0].mac "simulated time" 40
scalar WiredAndWirelessHostsWithAP.wiredHost[3].eth[0].mac full-duplex 1
scalar WiredAndWirelessHostsWithAP.wiredHost[3].eth[0].mac "frames/sec sent" 1
scalar WiredAndWirelessHostsWithAP.wiredHost[3].eth[0].mac "frames/sec rcvd" 0.025
scalar WiredAndWirelessHostsWithAP.wiredHost[3].eth[0].mac "bits/sec sent" 1151.6
scalar WiredAndWirelessHostsWithAP.wiredHost[3].eth[0].mac "bits/sec rcvd" 12.8
scalar WiredAndWirelessHostsWithAP.wiredHost[3].eth[0].mac "rx channel idle (%)" 100
scalar WiredAndWirelessHostsWithAP.wiredHost[3].eth[0].mac "rx channel utilization (%)" 0
scalar WiredAndWirelessHostsWithAP.wiredHost[3].eth[0].mac rxPausePkUnits:count 0
attr interpolationmode none
attr title "pause units received, count"
scalar WiredAndWirelessHostsWithAP.wiredHost[3].eth[0].mac rxPausePkUnits:sum 0
attr interpolationmode none
attr title "pause units received, sum"
scalar WiredAndWirelessHostsWithAP.wiredHost[3].eth[0].mac txPausePkUnits:count 0
attr interpolationmode none
attr title "pause units sent, count"
scalar WiredAndWirelessHostsWithAP.wiredHost[3].eth[0].mac txPausePkUnits:sum 0
attr interpolationmode none
attr title "pause units sent, sum"
scalar WiredAndWirelessHostsWithAP.wiredHost[3].eth[0].mac rxPkOk:count 1
attr interpolationmode none
attr source rxPkOk
attr title "packets received OK, count"
scalar WiredAndWirelessHostsWithAP.wiredHost[3].eth[0].mac rxPkOk:sum(packetBytes) 64
attr interpolationmode none
attr source rxPkOk
attr title "packets received OK, sum(packetBytes)"
scalar WiredAndWirelessHostsWithAP.wiredHost[3].eth[0].mac txPk:count 40
attr interpolationmode none
attr source packetSentToLower
attr title "packets transmitted, count"
scalar WiredAndWirelessHostsWithAP.wiredHost[3].eth[0].mac txPk:sum(packetBytes) 5758
attr interpolationmode none
attr source packetSentToLower
attr title "packets transmitted, sum(packetBytes)"
scalar WiredAndWirelessHostsWithAP.wiredHost[3].eth[0].mac packetReceivedFromUpper:count 41
attr interpolationmode none
attr source packetReceivedFromUpper
attr title "packet bytes from higher layer, count"
scalar WiredAndWirelessHostsWithAP.wiredHost[3].eth[0].mac packetReceivedFromUpper:sum(packetBytes) 5886
attr interpolationmode none
attr source packetReceivedFromUpper
attr title "packet bytes from higher layer, sum(packetBytes)"
scalar WiredAndWirelessHostsWithAP.wiredHost[3].eth[0].mac passedUpPk:count 1
attr interpolationmode none
attr source packetSentToUpper
attr title "packets passed to higher layer, count"
scalar WiredAndWirelessHostsWithAP.wiredHost[3].eth[0].mac passedUpPk:sum(packetBytes) 64
attr interpolationmode none
attr source packetSentToUpper
attr title "packets passed to higher layer, sum(packetBytes)"
scalar WiredAndWirelessHostsWithAP.wiredHost[3].eth[0].mac packetDropIncorrectlyReceived:count 0
attr interpolationmode none
attr source packetDropReasonIsIncorrectlyReceived(packetDropped)
attr title "packet drop: incorrectly received, count"
scalar WiredAndWirelessHostsWithAP.wiredHost[3].eth[0].mac packetDropIncorrectlyReceived:sum(packetBytes) 0
attr interpolationmode none
attr source packetDropReasonIsIncorrectlyReceived(packetDropped)
attr title "packet drop: incorrectly received, sum(packetBytes)"
scalar WiredAndWirelessHostsWithAP.wiredHost[3].eth[0].mac packetDropInterfaceDown:count 0
attr interpolationmode none
attr source packetDropReasonIsInterfaceDown(packetDropped)
attr title "packet drop: interface down, count"
scalar WiredAndWirelessHostsWithAP.wiredHost[3].eth[0].mac packetDropInterfaceDown:sum(packetBytes) 0
attr interpolationmode none
attr source packetDropReasonIsInterfaceDown(packetDropped)
attr title "packet drop: interface down, sum(packetBytes)"
scalar WiredAndWirelessHostsWithAP.wiredHost[3].eth[0].mac packetDropNotAddressedToUs:count 0
attr interpolationmode none
attr source packetDropReasonIsNotAddressedToUs(packetDropped)
attr title "packet drop: not addressed to us, count"
scalar WiredAndWirelessHostsWithAP.wiredHost[3].eth[0].mac packetDropNotAddressedToUs:sum(packetBytes) 0
attr interpolationmode none
attr source packetDropReasonIsNotAddressedToUs(packetDropped)
attr title "packet drop: not addressed to us, sum(packetBytes)"
scalar WiredAndWirelessHostsWithAP.wiredHost[3].eth[0].encap pauseSent:count 0
attr title "pause sent, count"
scalar WiredAndWirelessHostsWithAP.wiredHost[3].eth[0].encap pauseSent:sum 0
attr title "pause sent, sum"
scalar WiredAndWirelessHostsWithAP.wiredHost[3].eth[0].encap decapPk:count 1
attr interpolationmode none
attr source decapPk
attr title "packets decapsulated, count"
scalar WiredAndWirelessHostsWithAP.wiredHost[3].eth[0].encap decapPk:sum(packetBytes) 46
attr interpolationmode none
attr source decapPk
attr title "packets decapsulated, sum(packetBytes)"
scalar WiredAndWirelessHostsWithAP.wiredHost[3].eth[0].encap encapPk:count 41
attr interpolationmode none
attr source encapPk
attr title "packets encapsulated, count"
scalar WiredAndWirelessHostsWithAP.wiredHost[3].eth[0].encap encapPk:sum(packetBytes) 5148
attr interpolationmode none
attr source encapPk
attr title "packets encapsulated, sum(packetBytes)"
scalar WiredAndWirelessHostsWithAP.wiredHost[3].ipv4.ip packetDropAddressResolutionFailed:count 0
attr interpolationmode none
attr source packetDropReasonIsAddressResolutionFailed(packetDropped)
attr title "packet drop: address resolution failed, count"
scalar WiredAndWirelessHostsWithAP.wiredHost[3].ipv4.ip packetDropAddressResolutionFailed:sum(packetBytes) 0
attr interpolationmode none
attr source packetDropReasonIsAddressResolutionFailed(packetDropped)
attr title "packet drop: address resolution failed, sum(packetBytes)"
scalar WiredAndWirelessHostsWithAP.wiredHost[3].ipv4.ip packetDropHopLimitReached:count 0
attr interpolationmode none
attr source packetDropReasonIsHopLimitReached(packetDropped)
attr title "packet drop: hop limit reached, count"
scalar WiredAndWirelessHostsWithAP.wiredHost[3].ipv4.ip packetDropHopLimitReached:sum(packetBytes) 0
attr interpolationmode none
attr source packetDropReasonIsHopLimitReached(packetDropped)
attr title "packet drop: hop limit reached, sum(packetBytes)"
scalar WiredAndWirelessHostsWithAP.wiredHost[3].ipv4.ip packetDropForwardingDisabled:count 0
attr interpolationmode none
attr source packetDropReasonIsForwardingDisabled(packetDropped)
attr title "packet drop: forwarding disabled, count"
scalar WiredAndWirelessHostsWithAP.wiredHost[3].ipv4.ip packetDropForwardingDisabled:sum(packetBytes) 0
attr interpolationmode none
attr source packetDropReasonIsForwardingDisabled(packetDropped)
attr title "packet drop: forwarding disabled, sum(packetBytes)"
scalar WiredAndWirelessHostsWithAP.wiredHost[3].ipv4.ip packetDropNoInterfaceFound:count 0
attr interpolationmode none
attr source packetDropReasonIsNoInterfaceFound(packetDropped)
attr title "packet drop: no interface found, count"
scalar WiredAndWirelessHostsWithAP.wiredHost[3].ipv4.ip packetDropNoInterfaceFound:sum(packetBytes) 0
attr interpolationmode none
attr source packetDropReasonIsNoInterfaceFound(packetDropped)
attr title "packet drop: no interface found, sum(packetBytes)"
scalar WiredAndWirelessHostsWithAP.wiredHost[3].ipv4.ip packetDropNoRouteFound:count 0
attr interpolationmode none
attr source packetDropReasonIsNoRouteFound(packetDropped)
attr title "packet drop: no route found, count"
scalar WiredAndWirelessHostsWithAP.wiredHost[3].ipv4.ip packetDropNoRouteFound:sum(packetBytes) 0
attr interpolationmode none
attr source packetDropReasonIsNoRouteFound(packetDropped)
attr title "packet drop: no route found, sum(packetBytes)"
scalar WiredAndWirelessHostsWithAP.wiredHost[3].ipv4.ip packetDropUndefined:count 0
attr interpolationmode none
attr source packetDropReasonIsUndefined(packetDropped)
attr title "packet drop: undefined, count"
scalar WiredAndWirelessHostsWithAP.wiredHost[3].ipv4.ip packetDropUndefined:sum(packetBytes) 0
attr interpolationmode none
attr source packetDropReasonIsUndefined(packetDropped)
attr title "packet drop: undefined, sum(packetBytes)"
scalar WiredAndWirelessHostsWithAP.wiredHost[3].ipv4.arp arpResolutionFailed:count 0
attr title "ARP failed resolutions, count"
scalar WiredAndWirelessHostsWithAP.wiredHost[3].ipv4.arp arpResolutionCompleted:count 1
attr title "ARP completed resolutions, count"
scalar WiredAndWirelessHostsWithAP.wiredHost[3].ipv4.arp arpResolutionInitiated:count 1
attr title "ARP initiated resolutions, count"
scalar WiredAndWirelessHostsWithAP.wiredHost[3].ipv4.arp arpReplySent:count 0
attr source arpReplySent
attr title "ARP replies sent, count"
scalar WiredAndWirelessHostsWithAP.wiredHost[3].ipv4.arp arpReplySent:sum(packetBytes) 0
attr source arpReplySent
attr title "ARP replies sent, sum(packetBytes)"
scalar WiredAndWirelessHostsWithAP.wiredHost[3].ipv4.arp arpRequestSent:count 1
attr source arpRequestSent
attr title "ARP request sent, count"
scalar WiredAndWirelessHostsWithAP.wiredHost[3].ipv4.arp arpRequestSent:sum(packetBytes) 28
attr source arpRequestSent
attr title "ARP request sent, sum(packetBytes)"
scalar WiredAndWirelessHostsWithAP.wiredHost[3].udp packetReceived:count 0
attr interpolationmode none
attr source packetReceived
attr title "packets received, count"
scalar WiredAndWirelessHostsWithAP.wiredHost[3].udp packetReceived:sum(packetBytes) 0
attr interpolationmode none
attr source packetReceived
attr title "packets received, sum(packetBytes)"
scalar WiredAndWirelessHostsWithAP.wiredHost[3].udp packetSent:count 40
attr interpolationmode none
attr source packetSent
attr title "packets sent, count"
scalar WiredAndWirelessHostsWithAP.wiredHost[3].udp packetSent:sum(packetBytes) 4320
attr interpolationmode none
attr source packetSent
attr title "packets sent, sum(packetBytes)"
scalar WiredAndWirelessHostsWithAP.wiredHost[3].udp passedUpPk:count 0
attr interpolationmode none
attr source packetSentToUpper
attr title "packets passed up, count"
scalar WiredAndWirelessHostsWithAP.wiredHost[3].udp droppedPkWrongPort:count 0
attr interpolationmode none
attr source packetDropReasonIsNoPortFound(packetDropped)
attr title "packets dropped (wrong port), count"
scalar WiredAndWirelessHostsWithAP.wiredHost[3].udp droppedPkBadChecksum:count 0
attr interpolationmode none
attr source packetDropReasonIsIncorrectlyReceived(packetDropped)
attr title "packets dropped (checksum error), count"
scalar WiredAndWirelessHostsWithAP.wiredHost[3].app[0] "packets sent" 40
scalar WiredAndWirelessHostsWithAP.wiredHost[3].app[0] "packets received" 0
scalar WiredAndWirelessHostsWithAP.wiredHost[3].app[0] packetReceived:count 0
attr interpolationmode none
attr source packetReceived
attr title "packets received, count"
scalar WiredAndWirelessHostsWithAP.wiredHost[3].app[0] packetReceived:sum(packetBytes) 0
attr interpolationmode none
attr source packetReceived
attr title "packets received, sum(packetBytes)"
statistic WiredAndWirelessHostsWithAP.wiredHost[3].app[0] rcvdPkLifetime:stats
field count 0
field mean -nan
field stddev nan
field min nan
field max nan
field sum 0
field sqrsum 0
attr interpolationmode none
attr source dataAge(packetReceived)
attr title "received packet lifetime, stats"
attr unit s
scalar WiredAndWirelessHostsWithAP.wiredHost[3].app[0] packetSent:count 40
attr interpolationmode none
attr source packetSent
attr title "packets sent, count"
scalar WiredAndWirelessHostsWithAP.wiredHost[3].app[0] packetSent:sum(packetBytes) 4000
attr interpolationmode none
attr source packetSent
attr title "packets sent, sum(packetBytes)"
scalar WiredAndWirelessHostsWithAP.wiredHost[4].lo[0].lo rcvdPkFromHl:count 0
attr interpolationmode none
attr source packetReceivedFromUpper
attr title "packets received from higher layer, count"
scalar WiredAndWirelessHostsWithAP.wiredHost[4].lo[0].lo rcvdPkFromHl:sum(packetBytes) 0
attr interpolationmode none
attr source packetReceivedFromUpper
attr title "packets received from higher layer, sum(packetBytes)"
scalar WiredAndWirelessHostsWithAP.wiredHost[4].lo[0].lo passedUpPk:count 0
attr interpolationmode none
attr source packetSentToUpper
attr title "packets passed to higher layer, count"
scalar WiredAndWirelessHostsWithAP.wiredHost[4].lo[0].lo passedUpPk:sum(packetBytes) 0
attr interpolationmode none
attr source packetSentToUpper
attr title "packets passed to higher layer, sum(packetBytes)"
scalar WiredAndWirelessHostsWithAP.wiredHost[4].eth[0].mac.queue packetPopped:count 41
attr interpolationmode none
attr title "packet popped, count"
scalar WiredAndWirelessHostsWithAP.wiredHost[4].eth[0].mac.queue packetPopped:sum(packetBytes) 5904
attr interpolationmode none
attr title "packet popped, sum(packetBytes)"
statistic WiredAndWirelessHostsWithAP.wiredHost[4].eth[0].mac.queue queueingTime:histogram
field count 41
field mean 0
field stddev 0
field min 0
field max 0
field sum 0
field sqrsum 0
attr interpolationmode none
attr source queueingTime(packetPopped)
attr title "queueing times, histogram"
attr unit s
bin	-inf	0
bin	-0.5	0
bin	-0.48	0
bin	-0.46	0
bin	-0.44	0
bin	-0.42	0
bin	-0.4	0
bin	-0.38	0
bin	-0.36	0
bin	-0.34	0
bin	-0.32	0
bin	-0.3	0
bin	-0.28	0
bin	-0.26	0
bin	-0.24	0
bin	-0.22	0
bin	-0.2	0
bin	-0.18	0
bin	-0.16	0
bin	-0.14	0
bin	-0.12	0
bin	-0.1	0
bin	-0.08	0
bin	-0.06	0
bin	-0.04	0
bin	-0.02	0
bin	0	41
bin	0.02	0
bin	0.04	0
bin	0.06	0
bin	0.08	0
bin	0.1	0
bin	0.12	0
bin	0.14	0
bin	0.16	0
bin	0.18	0
bin	0.2	0
bin	0.22	0
bin	0.24	0
bin	0.26	0
bin	0.28	0
bin	0.3	0
bin	0.32	0
bin	0.34	0
bin	0.36	0
bin	0.38	0
bin	0.4	0
bin	0.42	0
bin	0.44	0
bin	0.46	0
bin	0.48	0
bin	0.5	0
scalar WiredAndWirelessHostsWithAP.wiredHost[4].eth[0].mac.queue queueLength:max 1
attr interpolationmode sample-hold
attr source "count(packetPushed) - count(packetPopped) - count(packetRemoved) - count(packetDropped)"
attr title "queue length, max"
scalar WiredAndWirelessHostsWithAP.wiredHost[4].eth[0].mac.queue queueLength:timeavg 0
attr interpolationmode sample-hold
attr source "count(packetPushed) - count(packetPopped) - count(packetRemoved) - count(packetDropped)"
attr title "queue length, timeavg"
scalar WiredAndWirelessHostsWithAP.wiredHost[4].eth[0].mac.queue packetPushed:count 41
attr interpolationmode none
attr title "packet pushed, count"
scalar WiredAndWirelessHostsWithAP.wiredHost[4].eth[0].mac.queue packetPushed:sum(packetBytes) 5904
attr interpolationmode none
attr title "packet pushed, sum(packetBytes)"
scalar WiredAndWirelessHostsWithAP.wiredHost[4].eth[0].mac.queue packetDropQueueOverflow:count 0
attr interpolationmode none
attr source packetDropReasonIsQueueOverflow(packetDropped)
attr title "packet drops: queue overflow, count"
scalar WiredAndWirelessHostsWithAP.wiredHost[4].eth[0].mac.queue packetDropQueueOverflow:sum(packetBytes) 0
attr interpolationmode none
attr source packetDropReasonIsQueueOverflow(packetDropped)
attr title "packet drops: queue overflow, sum(packetBytes)"
scalar WiredAndWirelessHostsWithAP.wiredHost[4].eth[0].mac.queue packetRemoved:count 0
attr interpolationmode none
attr title "packets removed, count"
scalar WiredAndWirelessHostsWithAP.wiredHost[4].eth[0].mac.queue packetRemoved:sum(packetBytes) 0
attr interpolationmode none
attr title "packets removed, sum(packetBytes)"
scalar WiredAndWirelessHostsWithAP.wiredHost[4].eth[0].mac "simulated time" 40
scalar WiredAndWirelessHostsWithAP.wiredHost[4].eth[0].mac full-duplex 1
scalar WiredAndWirelessHostsWithAP.wiredHost[4].eth[0].mac "frames/sec sent" 1
scalar WiredAndWirelessHostsWithAP.wiredHost[4].eth[0].mac "frames/sec rcvd" 0.025
scalar WiredAndWirelessHostsWithAP.wiredHost[4].eth[0].mac "bits/sec sent" 1151.6
scalar WiredAndWirelessHostsWithAP.wiredHost[4].eth[0].mac "bits/sec rcvd" 12.8
scalar WiredAndWirelessHostsWithAP.wiredHost[4].eth[0].mac "rx channel idle (%)" 100
scalar WiredAndWirelessHostsWithAP.wiredHost[4].eth[0].mac "rx channel utilization (%)" 0
scalar WiredAndWirelessHostsWithAP.wiredHost[4].eth[0].mac rxPausePkUnits:count 0
attr interpolationmode none
attr title "pause units received, count"
scalar WiredAndWirelessHostsWithAP.wiredHost[4].eth[0].mac rxPausePkUnits:sum 0
attr interpolationmode none
attr title "pause units received, sum"
scalar WiredAndWirelessHostsWithAP.wiredHost[4].eth[0].mac txPausePkUnits:count 0
attr interpolationmode none
attr title "pause units sent, count"
scalar WiredAndWirelessHostsWithAP.wiredHost[4].eth[0].mac txPausePkUnits:sum 0
attr interpolationmode none
attr title "pause units sent, sum"
scalar WiredAndWirelessHostsWithAP.wiredHost[4].eth[0].mac rxPkOk:count 1
attr interpolationmode none
attr source rxPkOk
attr title "packets received OK, count"
scalar WiredAndWirelessHostsWithAP.wiredHost[4].eth[0].mac rxPkOk:sum(packetBytes) 64
attr interpolationmode none
attr source rxPkOk
attr title "packets received OK, sum(packetBytes)"
scalar WiredAndWirelessHostsWithAP.wiredHost[4].eth[0].mac txPk:count 40
attr interpolationmode none
attr source packetSentToLower
attr title "packets transmitted, count"
scalar WiredAndWirelessHostsWithAP.wiredHost[4].eth[0].mac txPk:sum(packetBytes) 5758
attr interpolationmode none
attr source packetSentToLower
attr title "packets transmitted, sum(packetBytes)"
scalar WiredAndWirelessHostsWithAP.wiredHost[4].eth[0].mac packetReceivedFromUpper:count 41
attr interpolationmode none
attr source packetReceivedFromUpper
attr title "packet bytes from higher layer, count"
scalar WiredAndWirelessHostsWithAP.wiredHost[4].eth[0].mac packetReceivedFromUpper:sum(packetBytes) 5886
attr interpolationmode none
attr source packetReceivedFromUpper
attr title "packet bytes from higher layer, sum(packetBytes)"
scalar WiredAndWirelessHostsWithAP.wiredHost[4].eth[0].mac passedUpPk:count 1
attr interpolationmode none
attr source packetSentToUpper
attr title "packets passed to higher layer, count"
scalar WiredAndWirelessHostsWithAP.wiredHost[4].eth[0].mac passedUpPk:sum(packetBytes) 64
attr interpolationmode none
attr source packetSentToUpper
attr title "packets passed to higher layer, sum(packetBytes)"
scalar WiredAndWirelessHostsWithAP.wiredHost[4].eth[0].mac packetDropIncorrectlyReceived:count 0
attr interpolationmode none
attr source packetDropReasonIsIncorrectlyReceived(packetDropped)
attr title "packet drop: incorrectly received, count"
scalar WiredAndWirelessHostsWithAP.wiredHost[4].eth[0].mac packetDropIncorrectlyReceived:sum(packetBytes) 0
attr interpolationmode none
attr source packetDropReasonIsIncorrectlyReceived(packetDropped)
attr title "packet drop: incorrectly received, sum(packetBytes)"
scalar WiredAndWirelessHostsWithAP.wiredHost[4].eth[0].mac packetDropInterfaceDown:count 0
attr interpolationmode none
attr source packetDropReasonIsInterfaceDown(packetDropped)
attr title "packet drop: interface down, count"
scalar WiredAndWirelessHostsWithAP.wiredHost[4].eth[0].mac packetDropInterfaceDown:sum(packetBytes) 0
attr interpolationmode none
attr source packetDropReasonIsInterfaceDown(packetDropped)
attr title "packet drop: interface down, sum(packetBytes)"
scalar WiredAndWirelessHostsWithAP.wiredHost[4].eth[0].mac packetDropNotAddressedToUs:count 0
attr interpolationmode none
attr source packetDropReasonIsNotAddressedToUs(packetDropped)
attr title "packet drop: not addressed to us, count"
scalar WiredAndWirelessHostsWithAP.wiredHost[4].eth[0].mac packetDropNotAddressedToUs:sum(packetBytes) 0
attr interpolationmode none
attr source packetDropReasonIsNotAddressedToUs(packetDropped)
attr title "packet drop: not addressed to us, sum(packetBytes)"
scalar WiredAndWirelessHostsWithAP.wiredHost[4].eth[0].encap pauseSent:count 0
attr title "pause sent, count"
scalar WiredAndWirelessHostsWithAP.wiredHost[4].eth[0].encap pauseSent:sum 0
attr title "pause sent, sum"
scalar WiredAndWirelessHostsWithAP.wiredHost[4].eth[0].encap decapPk:count 1
attr interpolationmode none
attr source decapPk
attr title "packets decapsulated, count"
scalar WiredAndWirelessHostsWithAP.wiredHost[4].eth[0].encap decapPk:sum(packetBytes) 46
attr interpolationmode none
attr source decapPk
attr title "packets decapsulated, sum(packetBytes)"
scalar WiredAndWirelessHostsWithAP.wiredHost[4].eth[0].encap encapPk:count 41
attr interpolationmode none
attr source encapPk
attr title "packets encapsulated, count"
scalar WiredAndWirelessHostsWithAP.wiredHost[4].eth[0].encap encapPk:sum(packetBytes) 5148
attr interpolationmode none
attr source encapPk
attr title "packets encapsulated, sum(packetBytes)"
scalar WiredAndWirelessHostsWithAP.wiredHost[4].ipv4.ip packetDropAddressResolutionFailed:count 0
attr interpolationmode none
attr source packetDropReasonIsAddressResolutionFailed(packetDropped)
attr title "packet drop: address resolution failed, count"
scalar WiredAndWirelessHostsWithAP.wiredHost[4].ipv4.ip packetDropAddressResolutionFailed:sum(packetBytes) 0
attr interpolationmode none
attr source packetDropReasonIsAddressResolutionFailed(packetDropped)
attr title "packet drop: address resolution failed, sum(packetBytes)"
scalar WiredAndWirelessHostsWithAP.wiredHost[4].ipv4.ip packetDropHopLimitReached:count 0
attr interpolationmode none
attr source packetDropReasonIsHopLimitReached(packetDropped)
attr title "packet drop: hop limit reached, count"
scalar WiredAndWirelessHostsWithAP.wiredHost[4].ipv4.ip packetDropHopLimitReached:sum(packetBytes) 0
attr interpolationmode none
attr source packetDropReasonIsHopLimitReached(packetDropped)
attr title "packet drop: hop limit reached, sum(packetBytes)"
scalar WiredAndWirelessHostsWithAP.wiredHost[4].ipv4.ip packetDropForwardingDisabled:count 0
attr interpolationmode none
attr source packetDropReasonIsForwardingDisabled(packetDropped)
attr title "packet drop: forwarding disabled, count"
scalar WiredAndWirelessHostsWithAP.wiredHost[4].ipv4.ip packetDropForwardingDisabled:sum(packetBytes) 0
attr interpolationmode none
attr source packetDropReasonIsForwardingDisabled(packetDropped)
attr title "packet drop: forwarding disabled, sum(packetBytes)"
scalar WiredAndWirelessHostsWithAP.wiredHost[4].ipv4.ip packetDropNoInterfaceFound:count 0
attr interpolationmode none
attr source packetDropReasonIsNoInterfaceFound(packetDropped)
attr title "packet drop: no interface found, count"
scalar WiredAndWirelessHostsWithAP.wiredHost[4].ipv4.ip packetDropNoInterfaceFound:sum(packetBytes) 0
attr interpolationmode none
attr source packetDropReasonIsNoInterfaceFound(packetDropped)
attr title "packet drop: no interface found, sum(packetBytes)"
scalar WiredAndWirelessHostsWithAP.wiredHost[4].ipv4.ip packetDropNoRouteFound:count 0
attr interpolationmode none
attr source packetDropReasonIsNoRouteFound(packetDropped)
attr title "packet drop: no route found, count"
scalar WiredAndWirelessHostsWithAP.wiredHost[4].ipv4.ip packetDropNoRouteFound:sum(packetBytes) 0
attr interpolationmode none
attr source packetDropReasonIsNoRouteFound(packetDropped)
attr title "packet drop: no route found, sum(packetBytes)"
scalar WiredAndWirelessHostsWithAP.wiredHost[4].ipv4.ip packetDropUndefined:count 0
attr interpolationmode none
attr source packetDropReasonIsUndefined(packetDropped)
attr title "packet drop: undefined, count"
scalar WiredAndWirelessHostsWithAP.wiredHost[4].ipv4.ip packetDropUndefined:sum(packetBytes) 0
attr interpolationmode none
attr source packetDropReasonIsUndefined(packetDropped)
attr title "packet drop: undefined, sum(packetBytes)"
scalar WiredAndWirelessHostsWithAP.wiredHost[4].ipv4.arp arpResolutionFailed:count 0
attr title "ARP failed resolutions, count"
scalar WiredAndWirelessHostsWithAP.wiredHost[4].ipv4.arp arpResolutionCompleted:count 1
attr title "ARP completed resolutions, count"
scalar WiredAndWirelessHostsWithAP.wiredHost[4].ipv4.arp arpResolutionInitiated:count 1
attr title "ARP initiated resolutions, count"
scalar WiredAndWirelessHostsWithAP.wiredHost[4].ipv4.arp arpReplySent:count 0
attr source arpReplySent
attr title "ARP replies sent, count"
scalar WiredAndWirelessHostsWithAP.wiredHost[4].ipv4.arp arpReplySent:sum(packetBytes) 0
attr source arpReplySent
attr title "ARP replies sent, sum(packetBytes)"
scalar WiredAndWirelessHostsWithAP.wiredHost[4].ipv4.arp arpRequestSent:count 1
attr source arpRequestSent
attr title "ARP request sent, count"
scalar WiredAndWirelessHostsWithAP.wiredHost[4].ipv4.arp arpRequestSent:sum(packetBytes) 28
attr source arpRequestSent
attr title "ARP request sent, sum(packetBytes)"
scalar WiredAndWirelessHostsWithAP.wiredHost[4].udp packetReceived:count 0
attr interpolationmode none
attr source packetReceived
attr title "packets received, count"
scalar WiredAndWirelessHostsWithAP.wiredHost[4].udp packetReceived:sum(packetBytes) 0
attr interpolationmode none
attr source packetReceived
attr title "packets received, sum(packetBytes)"
scalar WiredAndWirelessHostsWithAP.wiredHost[4].udp packetSent:count 40
attr interpolationmode none
attr source packetSent
attr title "packets sent, count"
scalar WiredAndWirelessHostsWithAP.wiredHost[4].udp packetSent:sum(packetBytes) 4320
attr interpolationmode none
attr source packetSent
attr title "packets sent, sum(packetBytes)"
scalar WiredAndWirelessHostsWithAP.wiredHost[4].udp passedUpPk:count 0
attr interpolationmode none
attr source packetSentToUpper
attr title "packets passed up, count"
scalar WiredAndWirelessHostsWithAP.wiredHost[4].udp droppedPkWrongPort:count 0
attr interpolationmode none
attr source packetDropReasonIsNoPortFound(packetDropped)
attr title "packets dropped (wrong port), count"
scalar WiredAndWirelessHostsWithAP.wiredHost[4].udp droppedPkBadChecksum:count 0
attr interpolationmode none
attr source packetDropReasonIsIncorrectlyReceived(packetDropped)
attr title "packets dropped (checksum error), count"
scalar WiredAndWirelessHostsWithAP.wiredHost[4].app[0] "packets sent" 40
scalar WiredAndWirelessHostsWithAP.wiredHost[4].app[0] "packets received" 0
scalar WiredAndWirelessHostsWithAP.wiredHost[4].app[0] packetReceived:count 0
attr interpolationmode none
attr source packetReceived
attr title "packets received, count"
scalar WiredAndWirelessHostsWithAP.wiredHost[4].app[0] packetReceived:sum(packetBytes) 0
attr interpolationmode none
attr source packetReceived
attr title "packets received, sum(packetBytes)"
statistic WiredAndWirelessHostsWithAP.wiredHost[4].app[0] rcvdPkLifetime:stats
field count 0
field mean -nan
field stddev nan
field min nan
field max nan
field sum 0
field sqrsum 0
attr interpolationmode none
attr source dataAge(packetReceived)
attr title "received packet lifetime, stats"
attr unit s
scalar WiredAndWirelessHostsWithAP.wiredHost[4].app[0] packetSent:count 40
attr interpolationmode none
attr source packetSent
attr title "packets sent, count"
scalar WiredAndWirelessHostsWithAP.wiredHost[4].app[0] packetSent:sum(packetBytes) 4000
attr interpolationmode none
attr source packetSent
attr title "packets sent, sum(packetBytes)"
scalar WiredAndWirelessHostsWithAP.wiredHost[5].lo[0].lo rcvdPkFromHl:count 0
attr interpolationmode none
attr source packetReceivedFromUpper
attr title "packets received from higher layer, count"
scalar WiredAndWirelessHostsWithAP.wiredHost[5].lo[0].lo rcvdPkFromHl:sum(packetBytes) 0
attr interpolationmode none
attr source packetReceivedFromUpper
attr title "packets received from higher layer, sum(packetBytes)"
scalar WiredAndWirelessHostsWithAP.wiredHost[5].lo[0].lo passedUpPk:count 0
attr interpolationmode none
attr source packetSentToUpper
attr title "packets passed to higher layer, count"
scalar WiredAndWirelessHostsWithAP.wiredHost[5].lo[0].lo passedUpPk:sum(packetBytes) 0
[...]
attr interpolationmode none
attr source packetDropped
attr title "packet drops, sum(packetBytes)"
scalar WiredAndWirelessHostsWithAP.accessPoint.wlan[0].mac packetDropIncorrectlyReceived:count 0
attr interpolationmode none
attr source packetDropReasonIsIncorrectlyReceived(packetDropped)
attr title "packet drops: incorrectly received, count"
scalar WiredAndWirelessHostsWithAP.accessPoint.wlan[0].mac packetDropIncorrectlyReceived:sum(packetBytes) 0
attr interpolationmode none
attr source packetDropReasonIsIncorrectlyReceived(packetDropped)
attr title "packet drops: incorrectly received, sum(packetBytes)"
scalar WiredAndWirelessHostsWithAP.accessPoint.wlan[0].mac packetDropNotAddressedToUs:count 0
attr interpolationmode none
attr source packetDropReasonIsNotAddressedToUs(packetDropped)
attr title "packet drops: not addressed to us, count"
scalar WiredAndWirelessHostsWithAP.accessPoint.wlan[0].mac packetDropNotAddressedToUs:sum(packetBytes) 0
attr interpolationmode none
attr source packetDropReasonIsNotAddressedToUs(packetDropped)
attr title "packet drops: not addressed to us, sum(packetBytes)"
scalar WiredAndWirelessHostsWithAP.accessPoint.wlan[0].mac packetDropQueueOverflow:count 0
attr interpolationmode none
attr source packetDropReasonIsQueueOverflow(packetDropped)
attr title "packet drops: queue overflow, count"
scalar WiredAndWirelessHostsWithAP.accessPoint.wlan[0].mac packetDropQueueOverflow:sum(packetBytes) 0
attr interpolationmode none
attr source packetDropReasonIsQueueOverflow(packetDropped)
attr title "packet drops: queue overflow, sum(packetBytes)"
scalar WiredAndWirelessHostsWithAP.accessPoint.wlan[0].mac packetDropRetryLimitReached:count 0
attr interpolationmode none
attr source packetDropReasonIsRetryLimitReached(packetDropped)
attr title "packet drops: retry limit reached, count"
scalar WiredAndWirelessHostsWithAP.accessPoint.wlan[0].mac packetDropRetryLimitReached:sum(packetBytes) 0
attr interpolationmode none
attr source packetDropReasonIsRetryLimitReached(packetDropped)
attr title "packet drops: retry limit reached, sum(packetBytes)"
scalar WiredAndWirelessHostsWithAP.accessPoint.wlan[0].mac packetDropDuplicateDetected:count 0
attr interpolationmode none
attr source packetDropReasonIsDuplicateDetected(packetDropped)
attr title "packet drops: duplicate detected, count"
scalar WiredAndWirelessHostsWithAP.accessPoint.wlan[0].mac packetDropDuplicateDetected:sum(packetBytes) 0
attr interpolationmode none
attr source packetDropReasonIsDuplicateDetected(packetDropped)
attr title "packet drops: duplicate detected, sum(packetBytes)"
scalar WiredAndWirelessHostsWithAP.accessPoint.wlan[0].mac packetDropOther:count 0
attr interpolationmode none
attr source packetDropReasonIsOther(packetDropped)
attr title "packet drops: other, count"
scalar WiredAndWirelessHostsWithAP.accessPoint.wlan[0].mac packetDropOther:sum(packetBytes) 0
attr interpolationmode none
attr source packetDropReasonIsOther(packetDropped)
attr title "packet drops: other, sum(packetBytes)"
scalar WiredAndWirelessHostsWithAP.accessPoint.wlan[0].mac linkBroken:count 0
attr interpolationmode none
attr title "link breaks, count"
statistic WiredAndWirelessHostsWithAP.accessPoint.wlan[0].radio radioChannel:histogram
field count 1
field mean 0
field stddev -nan
field min 0
field max 0
field sum 0
field sqrsum 0
attr interpolationmode sample-hold
attr source radioChannelChanged
attr title "Radio channel, histogram"
bin	-inf	0
bin	-0.5	0
bin	-0.48	0
bin	-0.46	0
bin	-0.44	0
bin	-0.42	0
bin	-0.4	0
bin	-0.38	0
bin	-0.36	0
bin	-0.34	0
bin	-0.32	0
bin	-0.3	0
bin	-0.28	0
bin	-0.26	0
bin	-0.24	0
bin	-0.22	0
bin	-0.2	0
bin	-0.18	0
bin	-0.16	0
bin	-0.14	0
bin	-0.12	0
bin	-0.1	0
bin	-0.08	0
bin	-0.06	0
bin	-0.04	0
bin	-0.02	0
bin	0	1
bin	0.02	0
bin	0.04	0
bin	0.06	0
bin	0.08	0
bin	0.1	0
bin	0.12	0
bin	0.14	0
bin	0.16	0
bin	0.18	0
bin	0.2	0
bin	0.22	0
bin	0.24	0
bin	0.26	0
bin	0.28	0
bin	0.3	0
bin	0.32	0
bin	0.34	0
bin	0.36	0
bin	0.38	0
bin	0.4	0
bin	0.42	0
bin	0.44	0
bin	0.46	0
bin	0.48	0
bin	0.5	0
scalar WiredAndWirelessHostsWithAP.accessPoint.wlan[0].radio radioMode:count 805
attr interpolationmode sample-hold
attr source radioModeChanged
attr title "Radio mode, count"
scalar WiredAndWirelessHostsWithAP.accessPoint.wlan[0].radio receptionState:count 803
attr interpolationmode sample-hold
attr source receptionStateChanged
attr title "Radio reception state, count"
scalar WiredAndWirelessHostsWithAP.accessPoint.wlan[0].radio transmissionState:count 1604
attr interpolationmode sample-hold
attr source transmissionStateChanged
attr title "Radio transmission state, count"
statistic WiredAndWirelessHostsWithAP.accessPoint.wlan[0].radio minSnir:histogram
field count 0
field mean -nan
field stddev nan
field min nan
field max nan
field sum 0
field sqrsum 0
attr source minimumSnir(packetSentToUpper)
attr title "Min SNIR, histogram"
bin	-inf	0
bin	0	0
bin	1	0
statistic WiredAndWirelessHostsWithAP.accessPoint.wlan[0].radio packetErrorRate:histogram
field count 0
field mean -nan
field stddev nan
field min nan
field max nan
field sum 0
field sqrsum 0
attr source packetErrorRate(packetSentToUpper)
attr title "Packet error rate, histogram"
bin	-inf	0
bin	0	0
bin	1	0
statistic WiredAndWirelessHostsWithAP.accessPoint.wlan[0].radio bitErrorRate:histogram
field count 0
field mean -nan
field stddev nan
field min nan
field max nan
field sum 0
field sqrsum 0
attr source bitErrorRate(packetSentToUpper)
attr title "Bit error rate, histogram"
bin	-inf	0
bin	0	0
bin	1	0
statistic WiredAndWirelessHostsWithAP.accessPoint.wlan[0].radio symbolErrorRate:histogram
field count 0
field mean -nan
field stddev nan
field min nan
field max nan
field sum 0
field sqrsum 0
attr source symbolErrorRate(packetSentToUpper)
attr title "Symbol error rate, histogram"
bin	-inf	0
bin	0	0
bin	1	0
scalar WiredAndWirelessHostsWithAP.accessPoint.eth[0].mac.queue packetPopped:count 1
attr interpolationmode none
attr title "packet popped, count"
scalar WiredAndWirelessHostsWithAP.accessPoint.eth[0].mac.queue packetPopped:sum(packetBytes) 64
attr interpolationmode none
attr title "packet popped, sum(packetBytes)"
statistic WiredAndWirelessHostsWithAP.accessPoint.eth[0].mac.queue queueingTime:histogram
field count 1
field mean 0
field stddev -nan
field min 0
field max 0
field sum 0
field sqrsum 0
attr interpolationmode none
attr source queueingTime(packetPopped)
attr title "queueing times, histogram"
attr unit s
bin	-inf	0
bin	-0.5	0
bin	-0.48	0
bin	-0.46	0
bin	-0.44	0
bin	-0.42	0
bin	-0.4	0
bin	-0.38	0
bin	-0.36	0
bin	-0.34	0
bin	-0.32	0
bin	-0.3	0
bin	-0.28	0
bin	-0.26	0
bin	-0.24	0
bin	-0.22	0
bin	-0.2	0
bin	-0.18	0
bin	-0.16	0
bin	-0.14	0
bin	-0.12	0
bin	-0.1	0
bin	-0.08	0
bin	-0.06	0
bin	-0.04	0
bin	-0.02	0
bin	0	1
bin	0.02	0
bin	0.04	0
bin	0.06	0
bin	0.08	0
bin	0.1	0
bin	0.12	0
bin	0.14	0
bin	0.16	0
bin	0.18	0
bin	0.2	0
bin	0.22	0
bin	0.24	0
bin	0.26	0
bin	0.28	0
bin	0.3	0
bin	0.32	0
bin	0.34	0
bin	0.36	0
bin	0.38	0
bin	0.4	0
bin	0.42	0
bin	0.44	0
bin	0.46	0
bin	0.48	0
bin	0.5	0
scalar WiredAndWirelessHostsWithAP.accessPoint.eth[0].mac.queue queueLength:max 1
attr interpolationmode sample-hold
attr source "count(packetPushed) - count(packetPopped) - count(packetRemoved) - count(packetDropped)"
attr title "queue length, max"
scalar WiredAndWirelessHostsWithAP.accessPoint.eth[0].mac.queue queueLength:timeavg 0
attr interpolationmode sample-hold
attr source "count(packetPushed) - count(packetPopped) - count(packetRemoved) - count(packetDropped)"
attr title "queue length, timeavg"
scalar WiredAndWirelessHostsWithAP.accessPoint.eth[0].mac.queue packetPushed:count 1
attr interpolationmode none
attr title "packet pushed, count"
scalar WiredAndWirelessHostsWithAP.accessPoint.eth[0].mac.queue packetPushed:sum(packetBytes) 64
attr interpolationmode none
attr title "packet pushed, sum(packetBytes)"
scalar WiredAndWirelessHostsWithAP.accessPoint.eth[0].mac.queue packetDropQueueOverflow:count 0
attr interpolationmode none
attr source packetDropReasonIsQueueOverflow(packetDropped)
attr title "packet drops: queue overflow, count"
scalar WiredAndWirelessHostsWithAP.accessPoint.eth[0].mac.queue packetDropQueueOverflow:sum(packetBytes) 0
attr interpolationmode none
attr source packetDropReasonIsQueueOverflow(packetDropped)
attr title "packet drops: queue overflow, sum(packetBytes)"
scalar WiredAndWirelessHostsWithAP.accessPoint.eth[0].mac.queue packetRemoved:count 0
attr interpolationmode none
attr title "packets removed, count"
scalar WiredAndWirelessHostsWithAP.accessPoint.eth[0].mac.queue packetRemoved:sum(packetBytes) 0
attr interpolationmode none
attr title "packets removed, sum(packetBytes)"
scalar WiredAndWirelessHostsWithAP.accessPoint.eth[0].mac "simulated time" 40
scalar WiredAndWirelessHostsWithAP.accessPoint.eth[0].mac full-duplex 1
scalar WiredAndWirelessHostsWithAP.accessPoint.eth[0].mac "frames/sec sent" 0.025
scalar WiredAndWirelessHostsWithAP.accessPoint.eth[0].mac "frames/sec rcvd" 9.775
scalar WiredAndWirelessHostsWithAP.accessPoint.eth[0].mac "bits/sec sent" 12.8
scalar WiredAndWirelessHostsWithAP.accessPoint.eth[0].mac "bits/sec rcvd" 11400.8
scalar WiredAndWirelessHostsWithAP.accessPoint.eth[0].mac "rx channel idle (%)" 100
scalar WiredAndWirelessHostsWithAP.accessPoint.eth[0].mac "rx channel utilization (%)" 0
scalar WiredAndWirelessHostsWithAP.accessPoint.eth[0].mac rxPausePkUnits:count 0
attr interpolationmode none
attr title "pause units received, count"
scalar WiredAndWirelessHostsWithAP.accessPoint.eth[0].mac rxPausePkUnits:sum 0
attr interpolationmode none
attr title "pause units received, sum"
scalar WiredAndWirelessHostsWithAP.accessPoint.eth[0].mac txPausePkUnits:count 0
attr interpolationmode none
attr title "pause units sent, count"
scalar WiredAndWirelessHostsWithAP.accessPoint.eth[0].mac txPausePkUnits:sum 0
attr interpolationmode none
attr title "pause units sent, sum"
scalar WiredAndWirelessHostsWithAP.accessPoint.eth[0].mac rxPkOk:count 391
attr interpolationmode none
attr source rxPkOk
attr title "packets received OK, count"
scalar WiredAndWirelessHostsWithAP.accessPoint.eth[0].mac rxPkOk:sum(packetBytes) 57004
attr interpolationmode none
attr source rxPkOk
attr title "packets received OK, sum(packetBytes)"
scalar WiredAndWirelessHostsWithAP.accessPoint.eth[0].mac txPk:count 1
attr interpolationmode none
attr source packetSentToLower
attr title "packets transmitted, count"
scalar WiredAndWirelessHostsWithAP.accessPoint.eth[0].mac txPk:sum(packetBytes) 64
attr interpolationmode none
attr source packetSentToLower
attr title "packets transmitted, sum(packetBytes)"
scalar WiredAndWirelessHostsWithAP.accessPoint.eth[0].mac packetReceivedFromUpper:count 1
attr interpolationmode none
attr source packetReceivedFromUpper
attr title "packet bytes from higher layer, count"
scalar WiredAndWirelessHostsWithAP.accessPoint.eth[0].mac packetReceivedFromUpper:sum(packetBytes) 64
attr interpolationmode none
attr source packetReceivedFromUpper
attr title "packet bytes from higher layer, sum(packetBytes)"
scalar WiredAndWirelessHostsWithAP.accessPoint.eth[0].mac passedUpPk:count 391
attr interpolationmode none
attr source packetSentToUpper
attr title "packets passed to higher layer, count"
scalar WiredAndWirelessHostsWithAP.accessPoint.eth[0].mac passedUpPk:sum(packetBytes) 57004
attr interpolationmode none
attr source packetSentToUpper
attr title "packets passed to higher layer, sum(packetBytes)"
scalar WiredAndWirelessHostsWithAP.accessPoint.eth[0].mac packetDropIncorrectlyReceived:count 0
attr interpolationmode none
attr source packetDropReasonIsIncorrectlyReceived(packetDropped)
attr title "packet drop: incorrectly received, count"
scalar WiredAndWirelessHostsWithAP.accessPoint.eth[0].mac packetDropIncorrectlyReceived:sum(packetBytes) 0
attr interpolationmode none
attr source packetDropReasonIsIncorrectlyReceived(packetDropped)
attr title "packet drop: incorrectly received, sum(packetBytes)"
scalar WiredAndWirelessHostsWithAP.accessPoint.eth[0].mac packetDropInterfaceDown:count 0
attr interpolationmode none
attr source packetDropReasonIsInterfaceDown(packetDropped)
attr title "packet drop: interface down, count"
scalar WiredAndWirelessHostsWithAP.accessPoint.eth[0].mac packetDropInterfaceDown:sum(packetBytes) 0
attr interpolationmode none
attr source packetDropReasonIsInterfaceDown(packetDropped)
attr title "packet drop: interface down, sum(packetBytes)"
scalar WiredAndWirelessHostsWithAP.accessPoint.eth[0].mac packetDropNotAddressedToUs:count 0
attr interpolationmode none
attr source packetDropReasonIsNotAddressedToUs(packetDropped)
attr title "packet drop: not addressed to us, count"
scalar WiredAndWirelessHostsWithAP.accessPoint.eth[0].mac packetDropNotAddressedToUs:sum(packetBytes) 0
attr interpolationmode none
attr source packetDropReasonIsNotAddressedToUs(packetDropped)
attr title "packet drop: not addressed to us, sum(packetBytes)"
scalar WiredAndWirelessHostsWithAP.accessPoint.eth[1].mac.queue packetPopped:count 391
attr interpolationmode none
attr title "packet popped, count"
scalar WiredAndWirelessHostsWithAP.accessPoint.eth[1].mac.queue packetPopped:sum(packetBytes) 57004
attr interpolationmode none
attr title "packet popped, sum(packetBytes)"
statistic WiredAndWirelessHostsWithAP.accessPoint.eth[1].mac.queue queueingTime:histogram
field count 391
field mean 0
field stddev 0
field min 0
field max 0
field sum 0
field sqrsum 0
attr interpolationmode none
attr source queueingTime(packetPopped)
attr title "queueing times, histogram"
attr unit s
bin	-inf	0
bin	-0.5	0
bin	-0.48	0
bin	-0.46	0
bin	-0.44	0
bin	-0.42	0
bin	-0.4	0
bin	-0.38	0
bin	-0.36	0
bin	-0.34	0
bin	-0.32	0
bin	-0.3	0
bin	-0.28	0
bin	-0.26	0
bin	-0.24	0
bin	-0.22	0
bin	-0.2	0
bin	-0.18	0
bin	-0.16	0
bin	-0.14	0
bin	-0.12	0
bin	-0.1	0
bin	-0.08	0
bin	-0.06	0
bin	-0.04	0
bin	-0.02	0
bin	0	391
bin	0.02	0
bin	0.04	0
bin	0.06	0
bin	0.08	0
bin	0.1	0
bin	0.12	0
bin	0.14	0
bin	0.16	0
bin	0.18	0
bin	0.2	0
bin	0.22	0
bin	0.24	0
bin	0.26	0
bin	0.28	0
bin	0.3	0
bin	0.32	0
bin	0.34	0
bin	0.36	0
bin	0.38	0
bin	0.4	0
bin	0.42	0
bin	0.44	0
bin	0.46	0
bin	0.48	0
bin	0.5	0
scalar WiredAndWirelessHostsWithAP.accessPoint.eth[1].mac.queue queueLength:max 1
attr interpolationmode sample-hold
attr source "count(packetPushed) - count(packetPopped) - count(packetRemoved) - count(packetDropped)"
attr title "queue length, max"
scalar WiredAndWirelessHostsWithAP.accessPoint.eth[1].mac.queue queueLength:timeavg 0
attr interpolationmode sample-hold
attr source "count(packetPushed) - count(packetPopped) - count(packetRemoved) - count(packetDropped)"
attr title "queue length, timeavg"
scalar WiredAndWirelessHostsWithAP.accessPoint.eth[1].mac.queue packetPushed:count 391
attr interpolationmode none
attr title "packet pushed, count"
scalar WiredAndWirelessHostsWithAP.accessPoint.eth[1].mac.queue packetPushed:sum(packetBytes) 57004
attr interpolationmode none
attr title "packet pushed, sum(packetBytes)"
scalar WiredAndWirelessHostsWithAP.accessPoint.eth[1].mac.queue packetDropQueueOverflow:count 0
attr interpolationmode none
attr source packetDropReasonIsQueueOverflow(packetDropped)
attr title "packet drops: queue overflow, count"
scalar WiredAndWirelessHostsWithAP.accessPoint.eth[1].mac.queue packetDropQueueOverflow:sum(packetBytes) 0
attr interpolationmode none
attr source packetDropReasonIsQueueOverflow(packetDropped)
attr title "packet drops: queue overflow, sum(packetBytes)"
scalar WiredAndWirelessHostsWithAP.accessPoint.eth[1].mac.queue packetRemoved:count 0
attr interpolationmode none
attr title "packets removed, count"
scalar WiredAndWirelessHostsWithAP.accessPoint.eth[1].mac.queue packetRemoved:sum(packetBytes) 0
attr interpolationmode none
attr title "packets removed, sum(packetBytes)"
scalar WiredAndWirelessHostsWithAP.accessPoint.eth[1].mac "simulated time" 40
scalar WiredAndWirelessHostsWithAP.accessPoint.eth[1].mac full-duplex 1
scalar WiredAndWirelessHostsWithAP.accessPoint.eth[1].mac "frames/sec sent" 9.775
scalar WiredAndWirelessHostsWithAP.accessPoint.eth[1].mac "frames/sec rcvd" 0.025
scalar WiredAndWirelessHostsWithAP.accessPoint.eth[1].mac "bits/sec sent" 11400.8
scalar WiredAndWirelessHostsWithAP.accessPoint.eth[1].mac "bits/sec rcvd" 12.8
scalar WiredAndWirelessHostsWithAP.accessPoint.eth[1].mac "rx channel idle (%)" 100
scalar WiredAndWirelessHostsWithAP.accessPoint.eth[1].mac "rx channel utilization (%)" 0
scalar WiredAndWirelessHostsWithAP.accessPoint.eth[1].mac rxPausePkUnits:count 0
attr interpolationmode none
attr title "pause units received, count"
scalar WiredAndWirelessHostsWithAP.accessPoint.eth[1].mac rxPausePkUnits:sum 0
attr interpolationmode none
attr title "pause units received, sum"
scalar WiredAndWirelessHostsWithAP.accessPoint.eth[1].mac txPausePkUnits:count 0
attr interpolationmode none
attr title "pause units sent, count"
scalar WiredAndWirelessHostsWithAP.accessPoint.eth[1].mac txPausePkUnits:sum 0
attr interpolationmode none
attr title "pause units sent, sum"
scalar WiredAndWirelessHostsWithAP.accessPoint.eth[1].mac rxPkOk:count 1
attr interpolationmode none
attr source rxPkOk
attr title "packets received OK, count"
scalar WiredAndWirelessHostsWithAP.accessPoint.eth[1].mac rxPkOk:sum(packetBytes) 64
attr interpolationmode none
attr source rxPkOk
attr title "packets received OK, sum(packetBytes)"
scalar WiredAndWirelessHostsWithAP.accessPoint.eth[1].mac txPk:count 391
attr interpolationmode none
attr source packetSentToLower
attr title "packets transmitted, count"
scalar WiredAndWirelessHostsWithAP.accessPoint.eth[1].mac txPk:sum(packetBytes) 57004
attr interpolationmode none
attr source packetSentToLower
attr title "packets transmitted, sum(packetBytes)"
scalar WiredAndWirelessHostsWithAP.accessPoint.eth[1].mac packetReceivedFromUpper:count 391
attr interpolationmode none
attr source packetReceivedFromUpper
attr title "packet bytes from higher layer, count"
scalar WiredAndWirelessHostsWithAP.accessPoint.eth[1].mac packetReceivedFromUpper:sum(packetBytes) 57004
attr interpolationmode none
attr source packetReceivedFromUpper
attr title "packet bytes from higher layer, sum(packetBytes)"
scalar WiredAndWirelessHostsWithAP.accessPoint.eth[1].mac passedUpPk:count 1
attr interpolationmode none
attr source packetSentToUpper
attr title "packets passed to higher layer, count"
scalar WiredAndWirelessHostsWithAP.accessPoint.eth[1].mac passedUpPk:sum(packetBytes) 64
attr interpolationmode none
attr source packetSentToUpper
attr title "packets passed to higher layer, sum(packetBytes)"
scalar WiredAndWirelessHostsWithAP.accessPoint.eth[1].mac packetDropIncorrectlyReceived:count 0
attr interpolationmode none
attr source packetDropReasonIsIncorrectlyReceived(packetDropped)
attr title "packet drop: incorrectly received, count"
scalar WiredAndWirelessHostsWithAP.accessPoint.eth[1].mac packetDropIncorrectlyReceived:sum(packetBytes) 0
attr interpolationmode none
attr source packetDropReasonIsIncorrectlyReceived(packetDropped)
attr title "packet drop: incorrectly received, sum(packetBytes)"
scalar WiredAndWirelessHostsWithAP.accessPoint.eth[1].mac packetDropInterfaceDown:count 0
attr interpolationmode none
attr source packetDropReasonIsInterfaceDown(packetDropped)
attr title "packet drop: interface down, count"
scalar WiredAndWirelessHostsWithAP.accessPoint.eth[1].mac packetDropInterfaceDown:sum(packetBytes) 0
attr interpolationmode none
attr source packetDropReasonIsInterfaceDown(packetDropped)
attr title "packet drop: interface down, sum(packetBytes)"
scalar WiredAndWirelessHostsWithAP.accessPoint.eth[1].mac packetDropNotAddressedToUs:count 0
attr interpolationmode none
attr source packetDropReasonIsNotAddressedToUs(packetDropped)
attr title "packet drop: not addressed to us, count"
scalar WiredAndWirelessHostsWithAP.accessPoint.eth[1].mac packetDropNotAddressedToUs:sum(packetBytes) 0
attr interpolationmode none
attr source packetDropReasonIsNotAddressedToUs(packetDropped)
attr title "packet drop: not addressed to us, sum(packetBytes)"

