version 2
run Configurable_WiredAndWirelessHosts-0-20250826-17:19:24-4083
attr configname Configurable_WiredAndWirelessHosts
attr datetime 20250826-17:19:24
attr experiment Configurable_WiredAndWirelessHosts
attr inifile omnetpp.ini
attr iterationvars ""
attr iterationvarsf ""
attr measurement ""
attr network WiredAndWirelessHostsWithAP
attr processid 4083
attr repetition 0
attr replication #0
attr resultdir results
attr runnumber 0
attr seedset 210041226
param **.constraintAreaMinX 0m
param **.constraintAreaMinY 0m
param **.constraintAreaMinZ 0m
param **.constraintAreaMaxX 400m
param **.constraintAreaMaxY 400m
param **.constraintAreaMaxZ 0m
param **.initialZ 0m
param *.visualizer.packetDropVisualizer.displayPacketDrops true
param *.visualizer.mediumVisualizer.displayCommunicationRanges true
param *.visualizer.mediumVisualizer.displayInterferenceRanges true
param **.bitrate 2Mbps
param **.radio.transmitter.power 20mW
param **.radio.receiver.sensitivity -85dBm
param **.radio.receiver.snirThreshold 4dB
param **.radio.receiver.bandwidth "22 MHz"
param **.radioMedium.analogModel.typename "\"ScalarAnalogModel\""
param **.errorModel.typename "\"Ieee80211YansErrorModel\""
param **.radioMedium.backgroundNoise.power -110dBm
param **.hasUdp true
param **.*Host*.numApps 1
param **.sinkNode.udp.typename "\"Udp\""
param **.sinkNode.numApps 1
param **.sinkNode.app[0].typename "\"UdpSink\""
param **.sinkNode.app[0].localPort 1000
param **.*Host[*].app[0].typename "\"UdpBasicApp\""
param **.*Host[*].app[0].destAddresses "\"sinkNode\""
param **.*Host[*].app[*].destPort 1000
param **.*Host[*].app[*].messageLength 100B
param **.*Host[*].app[*].sendInterval 1s
param **.*Host[*].wlan[*].mac.dcf.channelAccess.pendingQueue.packetCapacity 100
param **.*Host[*].wlan[*].mac.dcf.channelAccess.cwMax 1023
param **.*Host[*].wlan[*].mac.dcf.channelAccess.cwMin 15
param **.wlan[*].mac.dcf.recoveryProcedure.shortRetryLimit 7
param **.wlan[*].mac.dcf.rtsPolicy.rtsThreshold 1024B
param WiredAndWirelessHostsWithAP.num_wireless 10
param WiredAndWirelessHostsWithAP.num_wired 0

scalar WiredAndWirelessHostsWithAP.radioMedium.propagation "Arrival computation count" 18690
scalar WiredAndWirelessHostsWithAP.radioMedium "transmission count" 1869
scalar WiredAndWirelessHostsWithAP.radioMedium "signal send count" 18690
scalar WiredAndWirelessHostsWithAP.radioMedium "reception computation count" 18590
scalar WiredAndWirelessHostsWithAP.radioMedium "interference computation count" 49528
scalar WiredAndWirelessHostsWithAP.radioMedium "reception decision computation count" 14112
scalar WiredAndWirelessHostsWithAP.radioMedium "listening decision computation count" 20460
scalar WiredAndWirelessHostsWithAP.radioMedium "reception cache hit" 85.729857528863
attr unit %
scalar WiredAndWirelessHostsWithAP.radioMedium "interference cache hit" 66.666666666667
attr unit %
scalar WiredAndWirelessHostsWithAP.radioMedium "noise cache hit" 0
attr unit %
scalar WiredAndWirelessHostsWithAP.radioMedium "snir cache hit" 50
attr unit %
scalar WiredAndWirelessHostsWithAP.radioMedium "reception decision cache hit" 50
attr unit %
scalar WiredAndWirelessHostsWithAP.radioMedium "reception result cache hit" 0
attr unit %
scalar WiredAndWirelessHostsWithAP.wirelessHost[0].lo[0].lo rcvdPkFromHl:count 0
attr interpolationmode none
attr source packetReceivedFromUpper
attr title "packets received from higher layer, count"
scalar WiredAndWirelessHostsWithAP.wirelessHost[0].lo[0].lo rcvdPkFromHl:sum(packetBytes) 0
attr interpolationmode none
attr source packetReceivedFromUpper
attr title "packets received from higher layer, sum(packetBytes)"
scalar WiredAndWirelessHostsWithAP.wirelessHost[0].lo[0].lo passedUpPk:count 0
attr interpolationmode none
attr source packetSentToUpper
attr title "packets passed to higher layer, count"
scalar WiredAndWirelessHostsWithAP.wirelessHost[0].lo[0].lo passedUpPk:sum(packetBytes) 0
attr interpolationmode none
attr source packetSentToUpper
attr title "packets passed to higher layer, sum(packetBytes)"
scalar WiredAndWirelessHostsWithAP.wirelessHost[0].wlan[0].agent dropConfirm:count 0
attr title "dropped confirms, count"
scalar WiredAndWirelessHostsWithAP.wirelessHost[0].wlan[0].agent acceptConfirm:count 3
attr title "accepted confirms, count"
scalar WiredAndWirelessHostsWithAP.wirelessHost[0].wlan[0].agent sentRequest:count 3
attr title "sent requests, count"
scalar WiredAndWirelessHostsWithAP.wirelessHost[0].wlan[0].mac.dcf.channelAccess.pendingQueue packetPopped:count 45
attr interpolationmode none
attr title "packet popped, count"
scalar WiredAndWirelessHostsWithAP.wirelessHost[0].wlan[0].mac.dcf.channelAccess.pendingQueue packetPopped:sum(packetBytes) 6760
attr interpolationmode none
attr title "packet popped, sum(packetBytes)"
statistic WiredAndWirelessHostsWithAP.wirelessHost[0].wlan[0].mac.dcf.channelAccess.pendingQueue queueingTime:histogram
field count 45
field mean 3.1879296577778e-05
field stddev 0.00016011673817207
field min 0
field max 0.001046568346
field sum 0.001434568346
field sqrsum 1.1737773028492e-06
attr interpolationmode none
attr source queueingTime(packetPopped)
attr title "queueing times, histogram"
attr unit s
bin	-inf	0
bin	0	42
bin	2e-05	0
bin	4e-05	0
bin	6e-05	0
bin	8e-05	0
bin	0.0001	0
bin	0.00012	0
bin	0.00014	1
bin	0.00016	0
bin	0.00018	0
bin	0.0002	0
bin	0.00022	1
bin	0.00024	0
bin	0.00026	0
bin	0.00028	0
bin	0.0003	0
bin	0.00032	0
bin	0.00034	0
bin	0.00036	0
bin	0.00038	0
bin	0.0004	0
bin	0.00042	0
bin	0.00044	0
bin	0.00046	0
bin	0.00048	0
bin	0.0005	0
bin	0.00052	0
bin	0.00054	0
bin	0.00056	0
bin	0.00058	0
bin	0.0006	0
bin	0.00062	0
bin	0.00064	0
bin	0.00066	0
bin	0.00068	0
bin	0.0007	0
bin	0.00072	0
bin	0.00074	0
bin	0.00076	0
bin	0.00078	0
bin	0.0008	0
bin	0.00082	0
bin	0.00084	0
bin	0.00086	0
bin	0.00088	0
bin	0.0009	0
bin	0.00092	0
bin	0.00094	0
bin	0.00096	0
bin	0.00098	0
bin	0.001	0
bin	0.00102	0
bin	0.00104	1
bin	0.00106	0
bin	0.00108	0
bin	0.0011	0
bin	0.00112	0
bin	0.00114	0
bin	0.00116	0
bin	0.00118	0
bin	0.0012	0
bin	0.00122	0
bin	0.00124	0
bin	0.00126	0
bin	0.00128	0
bin	0.0013	0
bin	0.00132	0
scalar WiredAndWirelessHostsWithAP.wirelessHost[0].wlan[0].mac.dcf.channelAccess.pendingQueue queueLength:max 1
attr interpolationmode sample-hold
attr source "count(packetPushed) - count(packetPopped) - count(packetRemoved) - count(packetDropped)"
attr title "queue length, max"
scalar WiredAndWirelessHostsWithAP.wirelessHost[0].wlan[0].mac.dcf.channelAccess.pendingQueue queueLength:timeavg 3.6057248439002e-05
attr interpolationmode sample-hold
attr source "count(packetPushed) - count(packetPopped) - count(packetRemoved) - count(packetDropped)"
attr title "queue length, timeavg"
scalar WiredAndWirelessHostsWithAP.wirelessHost[0].wlan[0].mac.dcf.channelAccess.pendingQueue packetPushed:count 45
attr interpolationmode none
attr title "packet pushed, count"
scalar WiredAndWirelessHostsWithAP.wirelessHost[0].wlan[0].mac.dcf.channelAccess.pendingQueue packetPushed:sum(packetBytes) 6760
attr interpolationmode none
attr title "packet pushed, sum(packetBytes)"
scalar WiredAndWirelessHostsWithAP.wirelessHost[0].wlan[0].mac.dcf.channelAccess.pendingQueue packetDropQueueOverflow:count 0
attr interpolationmode none
attr source packetDropReasonIsQueueOverflow(packetDropped)
attr title "packet drops: queue overflow, count"
scalar WiredAndWirelessHostsWithAP.wirelessHost[0].wlan[0].mac.dcf.channelAccess.pendingQueue packetDropQueueOverflow:sum(packetBytes) 0
attr interpolationmode none
attr source packetDropReasonIsQueueOverflow(packetDropped)
attr title "packet drops: queue overflow, sum(packetBytes)"
scalar WiredAndWirelessHostsWithAP.wirelessHost[0].wlan[0].mac.dcf.channelAccess.pendingQueue packetRemoved:count 0
attr interpolationmode none
attr title "packets removed, count"
scalar WiredAndWirelessHostsWithAP.wirelessHost[0].wlan[0].mac.dcf.channelAccess.pendingQueue packetRemoved:sum(packetBytes) 0
attr interpolationmode none
attr title "packets removed, sum(packetBytes)"
statistic WiredAndWirelessHostsWithAP.wirelessHost[0].wlan[0].mac.dcf.channelAccess.inProgressFrames queueingTime:histogram
field count 44
field mean 0.0063801594677727
field stddev 0.0041615897329568
field min 3.8e-05
field max 0.014968914902
field sum 0.280727016582
field sqrsum 0.0025357927842397
attr interpolationmode none
attr source queueingTime(packetDequeued)
attr title "queueing times, histogram"
bin	-inf	0
bin	0	4
bin	0.0002	0
bin	0.0004	0
bin	0.0006	0
bin	0.0008	0
bin	0.001	1
bin	0.0012	0
bin	0.0014	0
bin	0.0016	0
bin	0.0018	0
bin	0.002	0
bin	0.0022	3
bin	0.0024	0
bin	0.0026	0
bin	0.0028	0
bin	0.003	0
bin	0.0032	0
bin	0.0034	10
bin	0.0036	0
bin	0.0038	0
bin	0.004	0
bin	0.0042	0
bin	0.0044	0
bin	0.0046	3
bin	0.0048	2
bin	0.005	0
bin	0.0052	0
bin	0.0054	1
bin	0.0056	0
bin	0.0058	0
bin	0.006	0
bin	0.0062	1
bin	0.0064	0
bin	0.0066	0
bin	0.0068	0
bin	0.007	1
bin	0.0072	0
bin	0.0074	1
bin	0.0076	0
bin	0.0078	0
bin	0.008	0
bin	0.0082	1
bin	0.0084	2
bin	0.0086	0
bin	0.0088	1
bin	0.009	0
bin	0.0092	0
bin	0.0094	0
bin	0.0096	1
bin	0.0098	0
bin	0.01	0
bin	0.0102	0
bin	0.0104	0
bin	0.0106	0
bin	0.0108	5
bin	0.011	0
bin	0.0112	0
bin	0.0114	0
bin	0.0116	0
bin	0.0118	1
bin	0.012	2
bin	0.0122	2
bin	0.0124	1
bin	0.0126	0
bin	0.0128	0
bin	0.013	0
bin	0.0132	0
bin	0.0134	0
bin	0.0136	0
bin	0.0138	0
bin	0.014	0
bin	0.0142	0
bin	0.0144	0
bin	0.0146	0
bin	0.0148	1
bin	0.015	0
bin	0.0152	0
bin	0.0154	0
bin	0.0156	0
bin	0.0158	0
bin	0.016	0
bin	0.0162	0
bin	0.0164	0
bin	0.0166	0
bin	0.0168	0
bin	0.017	0
bin	0.0172	0
bin	0.0174	0
bin	0.0176	0
bin	0.0178	0
bin	0.018	0
bin	0.0182	0
bin	0.0184	0
bin	0.0186	0
bin	0.0188	0
scalar WiredAndWirelessHostsWithAP.wirelessHost[0].wlan[0].mac.dcf.channelAccess.inProgressFrames queueLength:max 1
attr interpolationmode sample-hold
attr source "count(packetEnqueued) - count(packetDequeued)"
attr title "queue length, max"
scalar WiredAndWirelessHostsWithAP.wirelessHost[0].wlan[0].mac.dcf.channelAccess.inProgressFrames queueLength:timeavg 0.0070559508779493
attr interpolationmode sample-hold
attr source "count(packetEnqueued) - count(packetDequeued)"
attr title "queue length, timeavg"
scalar WiredAndWirelessHostsWithAP.wirelessHost[0].wlan[0].mac.dcf.channelAccess.contention channelAccessGranted:count 89
attr title "channel access granted, count"
scalar WiredAndWirelessHostsWithAP.wirelessHost[0].wlan[0].mac.dcf.channelAccess.contention stateChanged:count 6038
attr interpolationmode none
attr title "contention state changed, count"
scalar WiredAndWirelessHostsWithAP.wirelessHost[0].wlan[0].mac.dcf.channelAccess channelOwnershipChanged:count 177
attr interpolationmode sample-hold
attr title "channel ownership, count"
scalar WiredAndWirelessHostsWithAP.wirelessHost[0].wlan[0].mac.dcf.originatorMacDataService packetAggregated:count 0
attr title "packets aggregated, count"
scalar WiredAndWirelessHostsWithAP.wirelessHost[0].wlan[0].mac.dcf.originatorMacDataService packetFragmented:count 0
attr title "packets fragmented, count"
scalar WiredAndWirelessHostsWithAP.wirelessHost[0].wlan[0].mac.dcf.recipientMacDataService packetDeaggregated:count 0
attr title "packets deaggregated, count"
scalar WiredAndWirelessHostsWithAP.wirelessHost[0].wlan[0].mac.dcf.recipientMacDataService packetDefragmented:count 423
attr title "packets defragmented, count"
scalar WiredAndWirelessHostsWithAP.wirelessHost[0].wlan[0].mac.dcf.recipientMacDataService packetDropDuplicateDetected:count 0
attr interpolationmode none
attr source packetDropReasonIsDuplicateDetected(packetDropped)
attr title "packet drops: duplicate detected, count"
scalar WiredAndWirelessHostsWithAP.wirelessHost[0].wlan[0].mac.dcf.recipientMacDataService packetDropDuplicateDetected:sum(packetBytes) 0
attr interpolationmode none
attr source packetDropReasonIsDuplicateDetected(packetDropped)
attr title "packet drops: duplicate detected, sum(packetBytes)"
scalar WiredAndWirelessHostsWithAP.wirelessHost[0].wlan[0].mac.dcf.recoveryProcedure retryLimitReached:count 0
attr title "retry limit reached, count"
scalar WiredAndWirelessHostsWithAP.wirelessHost[0].wlan[0].mac.dcf frameSequenceFinished:count 88
attr title "finished frame sequences, count"
statistic WiredAndWirelessHostsWithAP.wirelessHost[0].wlan[0].mac.dcf frameSequenceDuration:histogram
field count 88
field mean 0.00103309903625
field stddev 0.00021954646376756
field min 3.8e-05
field max 0.001106568346
field sum 0.09091271519
field sqrsum 9.8115294974157e-05
attr source frameSequenceDuration(frameSequenceFinished)
attr title "frame sequence durations, histogram"
bin	-inf	0
bin	0	0
bin	2e-05	1
bin	4e-05	0
bin	6e-05	0
bin	8e-05	3
bin	0.0001	0
bin	0.00012	0
bin	0.00014	0
bin	0.00016	0
bin	0.00018	0
bin	0.0002	0
bin	0.00022	0
bin	0.00024	0
bin	0.00026	0
bin	0.00028	0
bin	0.0003	0
bin	0.00032	0
bin	0.00034	0
bin	0.00036	0
bin	0.00038	0
bin	0.0004	0
bin	0.00042	0
bin	0.00044	0
bin	0.00046	0
bin	0.00048	0
bin	0.0005	0
bin	0.00052	0
bin	0.00054	0
bin	0.00056	0
bin	0.00058	0
bin	0.0006	0
bin	0.00062	0
bin	0.00064	0
bin	0.00066	1
bin	0.00068	0
bin	0.0007	1
bin	0.00072	0
bin	0.00074	0
bin	0.00076	0
bin	0.00078	0
bin	0.0008	0
bin	0.00082	0
bin	0.00084	0
bin	0.00086	0
bin	0.00088	0
bin	0.0009	0
bin	0.00092	0
bin	0.00094	0
bin	0.00096	0
bin	0.00098	0
bin	0.001	0
bin	0.00102	0
bin	0.00104	0
bin	0.00106	41
bin	0.00108	0
bin	0.0011	41
bin	0.00112	0
bin	0.00114	0
bin	0.00116	0
bin	0.00118	0
bin	0.0012	0
bin	0.00122	0
bin	0.00124	0
bin	0.00126	0
bin	0.00128	0
bin	0.0013	0
bin	0.00132	0
bin	0.00134	0
bin	0.00136	0
bin	0.00138	0
statistic WiredAndWirelessHostsWithAP.wirelessHost[0].wlan[0].mac.dcf frameSequenceNumPackets:histogram
field count 88
field mean 1.9886363636364
field stddev 0.10660035817781
field min 1
field max 2
field sum 175
field sqrsum 349
attr source frameSequenceNumPackets(frameSequenceFinished)
attr title "frame sequences: number of packets, histogram"
bin	-inf	0
bin	0	0
bin	1	1
bin	2	87
bin	3	0
scalar WiredAndWirelessHostsWithAP.wirelessHost[0].wlan[0].mac.dcf packetReceivedFromPeer:count 466
attr interpolationmode none
attr title "packets received, count"
scalar WiredAndWirelessHostsWithAP.wirelessHost[0].wlan[0].mac.dcf packetReceivedFromPeer:sum(packetBytes) 20900
attr interpolationmode none
attr title "packets received, sum(packetBytes)"
scalar WiredAndWirelessHostsWithAP.wirelessHost[0].wlan[0].mac.dcf packetReceivedFromPeerUnicast:count 48
attr interpolationmode none
attr source ieee80211Unicast(packetReceivedFromPeer)
attr title "packets received: unicast, count"
scalar WiredAndWirelessHostsWithAP.wirelessHost[0].wlan[0].mac.dcf packetReceivedFromPeerUnicast:sum(packetBytes) 836
attr interpolationmode none
attr source ieee80211Unicast(packetReceivedFromPeer)
attr title "packets received: unicast, sum(packetBytes)"
scalar WiredAndWirelessHostsWithAP.wirelessHost[0].wlan[0].mac.dcf packetReceivedFromPeerMulticast:count 418
attr interpolationmode none
attr source ieee80211Multicast(packetReceivedFromPeer)
attr title "packets received: multicast, count"
scalar WiredAndWirelessHostsWithAP.wirelessHost[0].wlan[0].mac.dcf packetReceivedFromPeerMulticast:sum(packetBytes) 20064
attr interpolationmode none
attr source ieee80211Multicast(packetReceivedFromPeer)
attr title "packets received: multicast, sum(packetBytes)"
scalar WiredAndWirelessHostsWithAP.wirelessHost[0].wlan[0].mac.dcf packetReceivedFromPeerBroadcast:count 418
attr interpolationmode none
attr source ieee80211Broadcast(packetReceivedFromPeer)
attr title "packets received: broadcast, count"
scalar WiredAndWirelessHostsWithAP.wirelessHost[0].wlan[0].mac.dcf packetReceivedFromPeerBroadcast:sum(packetBytes) 20064
attr interpolationmode none
attr source ieee80211Broadcast(packetReceivedFromPeer)
attr title "packets received: broadcast, sum(packetBytes)"
scalar WiredAndWirelessHostsWithAP.wirelessHost[0].wlan[0].mac.dcf packetReceivedFromPeerWithRetry:count 9
attr interpolationmode none
attr source ieee80211Retry(packetReceivedFromPeer)
attr title "packets received: with retry, count"
scalar WiredAndWirelessHostsWithAP.wirelessHost[0].wlan[0].mac.dcf packetReceivedFromPeerWithRetry:sum(packetBytes) 576
attr interpolationmode none
attr source ieee80211Retry(packetReceivedFromPeer)
attr title "packets received: with retry, sum(packetBytes)"
scalar WiredAndWirelessHostsWithAP.wirelessHost[0].wlan[0].mac.dcf packetReceivedFromPeerWithoutRetry:count 457
attr interpolationmode none
attr source ieee80211NotRetry(packetReceivedFromPeer)
attr title "packets received: without retry, count"
scalar WiredAndWirelessHostsWithAP.wirelessHost[0].wlan[0].mac.dcf packetReceivedFromPeerWithoutRetry:sum(packetBytes) 20324
attr interpolationmode none
attr source ieee80211NotRetry(packetReceivedFromPeer)
attr title "packets received: without retry, sum(packetBytes)"
scalar WiredAndWirelessHostsWithAP.wirelessHost[0].wlan[0].mac.dcf packetSentToPeer:count 93
attr interpolationmode none
attr title "packets sent, count"
scalar WiredAndWirelessHostsWithAP.wirelessHost[0].wlan[0].mac.dcf packetSentToPeer:sum(packetBytes) 13782
attr interpolationmode none
attr title "packets sent, sum(packetBytes)"
scalar WiredAndWirelessHostsWithAP.wirelessHost[0].wlan[0].mac.dcf packetSentToPeerUnicast:count 92
attr interpolationmode none
attr source ieee80211Unicast(packetSentToPeer)
attr title "packets sent: unicast, count"
scalar WiredAndWirelessHostsWithAP.wirelessHost[0].wlan[0].mac.dcf packetSentToPeerUnicast:sum(packetBytes) 13750
attr interpolationmode none
attr source ieee80211Unicast(packetSentToPeer)
attr title "packets sent: unicast, sum(packetBytes)"
scalar WiredAndWirelessHostsWithAP.wirelessHost[0].wlan[0].mac.dcf packetSentToPeerMulticast:count 1
attr interpolationmode none
attr source ieee80211Multicast(packetSentToPeer)
attr title "packets sent: multicast, count"
scalar WiredAndWirelessHostsWithAP.wirelessHost[0].wlan[0].mac.dcf packetSentToPeerMulticast:sum(packetBytes) 32
attr interpolationmode none
attr source ieee80211Multicast(packetSentToPeer)
attr title "packets sent: multicast, sum(packetBytes)"
scalar WiredAndWirelessHostsWithAP.wirelessHost[0].wlan[0].mac.dcf packetSentToPeerBroadcast:count 1
attr interpolationmode none
attr source ieee80211Broadcast(packetSentToPeer)
attr title "packets sent: broadcast , count"
scalar WiredAndWirelessHostsWithAP.wirelessHost[0].wlan[0].mac.dcf packetSentToPeerBroadcast:sum(packetBytes) 32
attr interpolationmode none
attr source ieee80211Broadcast(packetSentToPeer)
attr title "packets sent: broadcast , sum(packetBytes)"
scalar WiredAndWirelessHostsWithAP.wirelessHost[0].wlan[0].mac.dcf packetSentToPeerWithRetry:count 44
attr interpolationmode none
attr source ieee80211Retry(packetSentToPeer)
attr title "packets sent: with retry, count"
scalar WiredAndWirelessHostsWithAP.wirelessHost[0].wlan[0].mac.dcf packetSentToPeerWithRetry:sum(packetBytes) 7116
attr interpolationmode none
attr source ieee80211Retry(packetSentToPeer)
attr title "packets sent: with retry, sum(packetBytes)"
scalar WiredAndWirelessHostsWithAP.wirelessHost[0].wlan[0].mac.dcf packetSentToPeerWithoutRetry:count 49
attr interpolationmode none
attr source ieee80211NotRetry(packetSentToPeer)
attr title "packets sent: without retry, count"
scalar WiredAndWirelessHostsWithAP.wirelessHost[0].wlan[0].mac.dcf packetSentToPeerWithoutRetry:sum(packetBytes) 6666
attr interpolationmode none
attr source ieee80211NotRetry(packetSentToPeer)
attr title "packets sent: without retry, sum(packetBytes)"
scalar WiredAndWirelessHostsWithAP.wirelessHost[0].wlan[0].mac.dcf packetDrop:count 856
attr interpolationmode none
attr source packetDropped
attr title "packet drops, count"
scalar WiredAndWirelessHostsWithAP.wirelessHost[0].wlan[0].mac.dcf packetDrop:sum(packetBytes) 66118
attr interpolationmode none
attr source packetDropped
attr title "packet drops, sum(packetBytes)"
scalar WiredAndWirelessHostsWithAP.wirelessHost[0].wlan[0].mac.dcf packetDropNotAddressedToUs:count 856
attr interpolationmode none
attr source packetDropReasonIsNotAddressedToUs(packetDropped)
attr title "packet drops: not addressed to us, count"
scalar WiredAndWirelessHostsWithAP.wirelessHost[0].wlan[0].mac.dcf packetDropNotAddressedToUs:sum(packetBytes) 66118
attr interpolationmode none
attr source packetDropReasonIsNotAddressedToUs(packetDropped)
attr title "packet drops: not addressed to us, sum(packetBytes)"
scalar WiredAndWirelessHostsWithAP.wirelessHost[0].wlan[0].mac.dcf packetDropQueueOverflow:count 0
attr interpolationmode none
attr source packetDropReasonIsQueueOverflow(packetDropped)
attr title "packet drops: queue overflow, count"
scalar WiredAndWirelessHostsWithAP.wirelessHost[0].wlan[0].mac.dcf packetDropQueueOverflow:sum(packetBytes) 0
attr interpolationmode none
attr source packetDropReasonIsQueueOverflow(packetDropped)
attr title "packet drops: queue overflow, sum(packetBytes)"
scalar WiredAndWirelessHostsWithAP.wirelessHost[0].wlan[0].mac.dcf packetDropRetryLimitReached:count 0
attr interpolationmode none
attr source packetDropReasonIsRetryLimitReached(packetDropped)
attr title "packet drops: retry limit reached, count"
scalar WiredAndWirelessHostsWithAP.wirelessHost[0].wlan[0].mac.dcf packetDropRetryLimitReached:sum(packetBytes) 0
attr interpolationmode none
attr source packetDropReasonIsRetryLimitReached(packetDropped)
attr title "packet drops: retry limit reached, sum(packetBytes)"
scalar WiredAndWirelessHostsWithAP.wirelessHost[0].wlan[0].mac.dcf linkBroken:count 0
attr interpolationmode none
attr title "link breaks, count"
scalar WiredAndWirelessHostsWithAP.wirelessHost[0].wlan[0].mac packetReceivedFromLower:count 1359
attr interpolationmode none
attr title "packets received from lower layer, count"
scalar WiredAndWirelessHostsWithAP.wirelessHost[0].wlan[0].mac packetReceivedFromLower:sum(packetBytes) 92686
attr interpolationmode none
attr title "packets received from lower layer, sum(packetBytes)"
scalar WiredAndWirelessHostsWithAP.wirelessHost[0].wlan[0].mac packetSentToLower:count 94
attr interpolationmode none
attr title "packets sent to lower layer, count"
scalar WiredAndWirelessHostsWithAP.wirelessHost[0].wlan[0].mac packetSentToLower:sum(packetBytes) 13946
attr interpolationmode none
attr title "packets sent to lower layer, sum(packetBytes)"
scalar WiredAndWirelessHostsWithAP.wirelessHost[0].wlan[0].mac packetReceivedFromUpper:count 41
attr interpolationmode none
attr title "packets received from upper layer, count"
scalar WiredAndWirelessHostsWithAP.wirelessHost[0].wlan[0].mac packetReceivedFromUpper:sum(packetBytes) 5476
attr interpolationmode none
attr title "packets received from upper layer, sum(packetBytes)"
scalar WiredAndWirelessHostsWithAP.wirelessHost[0].wlan[0].mac packetSentToUpper:count 10
attr interpolationmode none
attr title "packets sent to upper layer, count"
scalar WiredAndWirelessHostsWithAP.wirelessHost[0].wlan[0].mac packetSentToUpper:sum(packetBytes) 378
attr interpolationmode none
attr title "packets sent to upper layer, sum(packetBytes)"
scalar WiredAndWirelessHostsWithAP.wirelessHost[0].wlan[0].mac packetDrop:count 891
attr interpolationmode none
attr source packetDropped
attr title "packet drops, count"
scalar WiredAndWirelessHostsWithAP.wirelessHost[0].wlan[0].mac packetDrop:sum(packetBytes) 71758
attr interpolationmode none
attr source packetDropped
attr title "packet drops, sum(packetBytes)"
scalar WiredAndWirelessHostsWithAP.wirelessHost[0].wlan[0].mac packetDropIncorrectlyReceived:count 35
attr interpolationmode none
attr source packetDropReasonIsIncorrectlyReceived(packetDropped)
attr title "packet drops: incorrectly received, count"
scalar WiredAndWirelessHostsWithAP.wirelessHost[0].wlan[0].mac packetDropIncorrectlyReceived:sum(packetBytes) 5640
attr interpolationmode none
attr source packetDropReasonIsIncorrectlyReceived(packetDropped)
attr title "packet drops: incorrectly received, sum(packetBytes)"
scalar WiredAndWirelessHostsWithAP.wirelessHost[0].wlan[0].mac packetDropNotAddressedToUs:count 856
attr interpolationmode none
attr source packetDropReasonIsNotAddressedToUs(packetDropped)
attr title "packet drops: not addressed to us, count"
scalar WiredAndWirelessHostsWithAP.wirelessHost[0].wlan[0].mac packetDropNotAddressedToUs:sum(packetBytes) 66118
attr interpolationmode none
attr source packetDropReasonIsNotAddressedToUs(packetDropped)
attr title "packet drops: not addressed to us, sum(packetBytes)"
scalar WiredAndWirelessHostsWithAP.wirelessHost[0].wlan[0].mac packetDropQueueOverflow:count 0
attr interpolationmode none
attr source packetDropReasonIsQueueOverflow(packetDropped)
attr title "packet drops: queue overflow, count"
scalar WiredAndWirelessHostsWithAP.wirelessHost[0].wlan[0].mac packetDropQueueOverflow:sum(packetBytes) 0
attr interpolationmode none
attr source packetDropReasonIsQueueOverflow(packetDropped)
attr title "packet drops: queue overflow, sum(packetBytes)"
scalar WiredAndWirelessHostsWithAP.wirelessHost[0].wlan[0].mac packetDropRetryLimitReached:count 0
attr interpolationmode none
attr source packetDropReasonIsRetryLimitReached(packetDropped)
attr title "packet drops: retry limit reached, count"
scalar WiredAndWirelessHostsWithAP.wirelessHost[0].wlan[0].mac packetDropRetryLimitReached:sum(packetBytes) 0
attr interpolationmode none
attr source packetDropReasonIsRetryLimitReached(packetDropped)
attr title "packet drops: retry limit reached, sum(packetBytes)"
scalar WiredAndWirelessHostsWithAP.wirelessHost[0].wlan[0].mac packetDropDuplicateDetected:count 0
attr interpolationmode none
attr source packetDropReasonIsDuplicateDetected(packetDropped)
attr title "packet drops: duplicate detected, count"
scalar WiredAndWirelessHostsWithAP.wirelessHost[0].wlan[0].mac packetDropDuplicateDetected:sum(packetBytes) 0
attr interpolationmode none
attr source packetDropReasonIsDuplicateDetected(packetDropped)
attr title "packet drops: duplicate detected, sum(packetBytes)"
scalar WiredAndWirelessHostsWithAP.wirelessHost[0].wlan[0].mac packetDropOther:count 0
attr interpolationmode none
attr source packetDropReasonIsOther(packetDropped)
attr title "packet drops: other, count"
scalar WiredAndWirelessHostsWithAP.wirelessHost[0].wlan[0].mac packetDropOther:sum(packetBytes) 0
attr interpolationmode none
attr source packetDropReasonIsOther(packetDropped)
attr title "packet drops: other, sum(packetBytes)"
scalar WiredAndWirelessHostsWithAP.wirelessHost[0].wlan[0].mac linkBroken:count 0
attr interpolationmode none
attr title "link breaks, count"
statistic WiredAndWirelessHostsWithAP.wirelessHost[0].wlan[0].radio radioChannel:histogram
field count 4
field mean 0
field stddev 0
field min 0
field max 0
field sum 0
field sqrsum 0
attr interpolationmode sample-hold
attr source radioChannelChanged
attr title "Radio channel, histogram"
bin	-inf	0
bin	-0.5	0
bin	-0.48	0
bin	-0.46	0
bin	-0.44	0
bin	-0.42	0
bin	-0.4	0
bin	-0.38	0
bin	-0.36	0
bin	-0.34	0
bin	-0.32	0
bin	-0.3	0
bin	-0.28	0
bin	-0.26	0
bin	-0.24	0
bin	-0.22	0
bin	-0.2	0
bin	-0.18	0
bin	-0.16	0
bin	-0.14	0
bin	-0.12	0
bin	-0.1	0
bin	-0.08	0
bin	-0.06	0
bin	-0.04	0
bin	-0.02	0
bin	0	4
bin	0.02	0
bin	0.04	0
bin	0.06	0
bin	0.08	0
bin	0.1	0
bin	0.12	0
bin	0.14	0
bin	0.16	0
bin	0.18	0
bin	0.2	0
bin	0.22	0
bin	0.24	0
bin	0.26	0
bin	0.28	0
bin	0.3	0
bin	0.32	0
bin	0.34	0
bin	0.36	0
bin	0.38	0
bin	0.4	0
bin	0.42	0
bin	0.44	0
bin	0.46	0
bin	0.48	0
bin	0.5	0
scalar WiredAndWirelessHostsWithAP.wirelessHost[0].wlan[0].radio radioMode:count 190
attr interpolationmode sample-hold
attr source radioModeChanged
attr title "Radio mode, count"
scalar WiredAndWirelessHostsWithAP.wirelessHost[0].wlan[0].radio receptionState:count 2995
attr interpolationmode sample-hold
attr source receptionStateChanged
attr title "Radio reception state, count"
scalar WiredAndWirelessHostsWithAP.wirelessHost[0].wlan[0].radio transmissionState:count 374
attr interpolationmode sample-hold
attr source transmissionStateChanged
attr title "Radio transmission state, count"
statistic WiredAndWirelessHostsWithAP.wirelessHost[0].wlan[0].radio minSnir:histogram
field count 1359
field mean 19666.92045938
field stddev 11366.460138567
field min 0.8467175259717
field max 35734.558206746
field sum 26727344.904297
field sqrsum 701093299362.07
attr source minimumSnir(packetSentToUpper)
attr title "Min SNIR, histogram"
bin	-inf	0
bin	0	40
bin	500	0
bin	1000	147
bin	1500	0
bin	2000	0
bin	2500	0
bin	3000	49
bin	3500	98
bin	4000	0
bin	4500	0
bin	5000	0
bin	5500	0
bin	6000	0
bin	6500	0
bin	7000	98
bin	7500	0
bin	8000	0
bin	8500	0
bin	9000	0
bin	9500	0
bin	10000	0
bin	10500	0
bin	11000	0
bin	11500	0
bin	12000	0
bin	12500	0
bin	13000	0
bin	13500	0
bin	14000	0
bin	14500	0
bin	15000	0
bin	15500	0
bin	16000	0
bin	16500	0
bin	17000	0
bin	17500	0
bin	18000	0
bin	18500	0
bin	19000	0
bin	19500	0
bin	20000	0
bin	20500	0
bin	21000	0
bin	21500	0
bin	22000	0
bin	22500	0
bin	23000	0
bin	23500	0
bin	24000	0
bin	24500	0
bin	25000	0
bin	25500	0
bin	26000	0
bin	26500	890
bin	27000	0
bin	27500	0
bin	28000	0
bin	28500	0
bin	29000	0
bin	29500	0
bin	30000	0
bin	30500	0
bin	31000	0
bin	31500	0
bin	32000	0
bin	32500	0
bin	33000	0
bin	33500	0
bin	34000	0
bin	34500	0
bin	35000	0
bin	35500	37
bin	36000	0
bin	36500	0
bin	37000	0
bin	37500	0
bin	38000	0
bin	38500	0
bin	39000	0
bin	39500	0
bin	40000	0
bin	40500	0
bin	41000	0
bin	41500	0
bin	42000	0
bin	42500	0
bin	43000	0
bin	43500	0
bin	44000	0
bin	44500	0
statistic WiredAndWirelessHostsWithAP.wirelessHost[0].wlan[0].radio packetErrorRate:histogram
field count 1359
field mean 0.025239279572834
field stddev 0.1563392645696
field min 0
field max 1
field sum 34.300180939481
field sqrsum 34.057901203619
attr source packetErrorRate(packetSentToUpper)
attr title "Packet error rate, histogram"
bin	-inf	0
bin	-0.5	0
bin	-0.48	0
bin	-0.46	0
bin	-0.44	0
bin	-0.42	0
bin	-0.4	0
bin	-0.38	0
bin	-0.36	0
bin	-0.34	0
bin	-0.32	0
bin	-0.3	0
bin	-0.28	0
bin	-0.26	0
bin	-0.24	0
bin	-0.22	0
bin	-0.2	0
bin	-0.18	0
bin	-0.16	0
bin	-0.14	0
bin	-0.12	0
bin	-0.1	0
bin	-0.08	0
bin	-0.06	0
bin	-0.04	0
bin	-0.02	0
bin	0	1323
bin	0.02	0
bin	0.04	0
bin	0.06	1
bin	0.08	0
bin	0.1	0
bin	0.12	0
bin	0.14	0
bin	0.16	0
bin	0.18	0
bin	0.2	0
bin	0.22	1
bin	0.24	0
bin	0.26	0
bin	0.28	0
bin	0.3	0
bin	0.32	0
bin	0.34	0
bin	0.36	0
bin	0.38	0
bin	0.4	0
bin	0.42	0
bin	0.44	0
bin	0.46	0
bin	0.48	0
bin	0.5	0
bin	0.52	0
bin	0.54	0
bin	0.56	0
bin	0.58	0
bin	0.6	0
bin	0.62	0
bin	0.64	0
bin	0.66	0
bin	0.68	0
bin	0.7	0
bin	0.72	0
bin	0.74	0
bin	0.76	0
bin	0.78	0
bin	0.8	0
bin	0.82	0
bin	0.84	0
bin	0.86	0
bin	0.88	0
bin	0.9	0
bin	0.92	0
bin	0.94	0
bin	0.96	0
bin	0.98	9
bin	1	25
bin	1.02	0
statistic WiredAndWirelessHostsWithAP.wirelessHost[0].wlan[0].radio bitErrorRate:histogram
field count 0
field mean -nan
field stddev nan
field min nan
field max nan
field sum 0
field sqrsum 0
attr source bitErrorRate(packetSentToUpper)
attr title "Bit error rate, histogram"
bin	-inf	0
bin	0	0
bin	1	0
statistic WiredAndWirelessHostsWithAP.wirelessHost[0].wlan[0].radio symbolErrorRate:histogram
field count 0
field mean -nan
field stddev nan
field min nan
field max nan
field sum 0
field sqrsum 0
attr source symbolErrorRate(packetSentToUpper)
attr title "Symbol error rate, histogram"
bin	-inf	0
bin	0	0
bin	1	0
scalar WiredAndWirelessHostsWithAP.wirelessHost[0].ipv4.ip packetDropAddressResolutionFailed:count 0
attr interpolationmode none
attr source packetDropReasonIsAddressResolutionFailed(packetDropped)
attr title "packet drop: address resolution failed, count"
scalar WiredAndWirelessHostsWithAP.wirelessHost[0].ipv4.ip packetDropAddressResolutionFailed:sum(packetBytes) 0
attr interpolationmode none
attr source packetDropReasonIsAddressResolutionFailed(packetDropped)
attr title "packet drop: address resolution failed, sum(packetBytes)"
scalar WiredAndWirelessHostsWithAP.wirelessHost[0].ipv4.ip packetDropHopLimitReached:count 0
attr interpolationmode none
attr source packetDropReasonIsHopLimitReached(packetDropped)
attr title "packet drop: hop limit reached, count"
scalar WiredAndWirelessHostsWithAP.wirelessHost[0].ipv4.ip packetDropHopLimitReached:sum(packetBytes) 0
attr interpolationmode none
attr source packetDropReasonIsHopLimitReached(packetDropped)
attr title "packet drop: hop limit reached, sum(packetBytes)"
scalar WiredAndWirelessHostsWithAP.wirelessHost[0].ipv4.ip packetDropForwardingDisabled:count 0
attr interpolationmode none
attr source packetDropReasonIsForwardingDisabled(packetDropped)
attr title "packet drop: forwarding disabled, count"
scalar WiredAndWirelessHostsWithAP.wirelessHost[0].ipv4.ip packetDropForwardingDisabled:sum(packetBytes) 0
attr interpolationmode none
attr source packetDropReasonIsForwardingDisabled(packetDropped)
attr title "packet drop: forwarding disabled, sum(packetBytes)"
scalar WiredAndWirelessHostsWithAP.wirelessHost[0].ipv4.ip packetDropNoInterfaceFound:count 0
attr interpolationmode none
attr source packetDropReasonIsNoInterfaceFound(packetDropped)
attr title "packet drop: no interface found, count"
scalar WiredAndWirelessHostsWithAP.wirelessHost[0].ipv4.ip packetDropNoInterfaceFound:sum(packetBytes) 0
attr interpolationmode none
attr source packetDropReasonIsNoInterfaceFound(packetDropped)
attr title "packet drop: no interface found, sum(packetBytes)"
scalar WiredAndWirelessHostsWithAP.wirelessHost[0].ipv4.ip packetDropNoRouteFound:count 0
attr interpolationmode none
attr source packetDropReasonIsNoRouteFound(packetDropped)
attr title "packet drop: no route found, count"
scalar WiredAndWirelessHostsWithAP.wirelessHost[0].ipv4.ip packetDropNoRouteFound:sum(packetBytes) 0
attr interpolationmode none
attr source packetDropReasonIsNoRouteFound(packetDropped)
attr title "packet drop: no route found, sum(packetBytes)"
scalar WiredAndWirelessHostsWithAP.wirelessHost[0].ipv4.ip packetDropUndefined:count 0
attr interpolationmode none
attr source packetDropReasonIsUndefined(packetDropped)
attr title "packet drop: undefined, count"
scalar WiredAndWirelessHostsWithAP.wirelessHost[0].ipv4.ip packetDropUndefined:sum(packetBytes) 0
attr interpolationmode none
attr source packetDropReasonIsUndefined(packetDropped)
attr title "packet drop: undefined, sum(packetBytes)"
scalar WiredAndWirelessHostsWithAP.wirelessHost[0].ipv4.arp arpResolutionFailed:count 0
attr title "ARP failed resolutions, count"
scalar WiredAndWirelessHostsWithAP.wirelessHost[0].ipv4.arp arpResolutionCompleted:count 1
attr title "ARP completed resolutions, count"
scalar WiredAndWirelessHostsWithAP.wirelessHost[0].ipv4.arp arpResolutionInitiated:count 1
attr title "ARP initiated resolutions, count"
scalar WiredAndWirelessHostsWithAP.wirelessHost[0].ipv4.arp arpReplySent:count 0
attr source arpReplySent
attr title "ARP replies sent, count"
scalar WiredAndWirelessHostsWithAP.wirelessHost[0].ipv4.arp arpReplySent:sum(packetBytes) 0
attr source arpReplySent
attr title "ARP replies sent, sum(packetBytes)"
scalar WiredAndWirelessHostsWithAP.wirelessHost[0].ipv4.arp arpRequestSent:count 1
attr source arpRequestSent
attr title "ARP request sent, count"
scalar WiredAndWirelessHostsWithAP.wirelessHost[0].ipv4.arp arpRequestSent:sum(packetBytes) 28
attr source arpRequestSent
attr title "ARP request sent, sum(packetBytes)"
scalar WiredAndWirelessHostsWithAP.wirelessHost[0].udp packetReceived:count 0
attr interpolationmode none
attr source packetReceived
attr title "packets received, count"
scalar WiredAndWirelessHostsWithAP.wirelessHost[0].udp packetReceived:sum(packetBytes) 0
attr interpolationmode none
attr source packetReceived
attr title "packets received, sum(packetBytes)"
scalar WiredAndWirelessHostsWithAP.wirelessHost[0].udp packetSent:count 40
attr interpolationmode none
attr source packetSent
attr title "packets sent, count"
scalar WiredAndWirelessHostsWithAP.wirelessHost[0].udp packetSent:sum(packetBytes) 4320
attr interpolationmode none
attr source packetSent
attr title "packets sent, sum(packetBytes)"
scalar WiredAndWirelessHostsWithAP.wirelessHost[0].udp passedUpPk:count 0
attr interpolationmode none
attr source packetSentToUpper
attr title "packets passed up, count"
scalar WiredAndWirelessHostsWithAP.wirelessHost[0].udp droppedPkWrongPort:count 0
attr interpolationmode none
attr source packetDropReasonIsNoPortFound(packetDropped)
attr title "packets dropped (wrong port), count"
scalar WiredAndWirelessHostsWithAP.wirelessHost[0].udp droppedPkBadChecksum:count 0
attr interpolationmode none
attr source packetDropReasonIsIncorrectlyReceived(packetDropped)
attr title "packets dropped (checksum error), count"
scalar WiredAndWirelessHostsWithAP.wirelessHost[0].app[0] "packets sent" 40
scalar WiredAndWirelessHostsWithAP.wirelessHost[0].app[0] "packets received" 0
scalar WiredAndWirelessHostsWithAP.wirelessHost[0].app[0] packetReceived:count 0
attr interpolationmode none
attr source packetReceived
attr title "packets received, count"
scalar WiredAndWirelessHostsWithAP.wirelessHost[0].app[0] packetReceived:sum(packetBytes) 0
attr interpolationmode none
attr source packetReceived
attr title "packets received, sum(packetBytes)"
statistic WiredAndWirelessHostsWithAP.wirelessHost[0].app[0] rcvdPkLifetime:stats
field count 0
field mean -nan
field stddev nan
field min nan
field max nan
field sum 0
field sqrsum 0
attr interpolationmode none
attr source dataAge(packetReceived)
attr title "received packet lifetime, stats"
attr unit s
scalar WiredAndWirelessHostsWithAP.wirelessHost[0].app[0] packetSent:count 40
attr interpolationmode none
attr source packetSent
attr title "packets sent, count"
scalar WiredAndWirelessHostsWithAP.wirelessHost[0].app[0] packetSent:sum(packetBytes) 4000
attr interpolationmode none
attr source packetSent
attr title "packets sent, sum(packetBytes)"
scalar WiredAndWirelessHostsWithAP.wirelessHost[1].lo[0].lo rcvdPkFromHl:count 0
attr interpolationmode none
attr source packetReceivedFromUpper
attr title "packets received from higher layer, count"
scalar WiredAndWirelessHostsWithAP.wirelessHost[1].lo[0].lo rcvdPkFromHl:sum(packetBytes) 0
attr interpolationmode none
attr source packetReceivedFromUpper
attr title "packets received from higher layer, sum(packetBytes)"
scalar WiredAndWirelessHostsWithAP.wirelessHost[1].lo[0].lo passedUpPk:count 0
attr interpolationmode none
attr source packetSentToUpper
attr title "packets passed to higher layer, count"
scalar WiredAndWirelessHostsWithAP.wirelessHost[1].lo[0].lo passedUpPk:sum(packetBytes) 0
attr interpolationmode none
attr source packetSentToUpper
attr title "packets passed to higher layer, sum(packetBytes)"
scalar WiredAndWirelessHostsWithAP.wirelessHost[1].wlan[0].agent dropConfirm:count 0
attr title "dropped confirms, count"
scalar WiredAndWirelessHostsWithAP.wirelessHost[1].wlan[0].agent acceptConfirm:count 3
attr title "accepted confirms, count"
scalar WiredAndWirelessHostsWithAP.wirelessHost[1].wlan[0].agent sentRequest:count 3
attr title "sent requests, count"
scalar WiredAndWirelessHostsWithAP.wirelessHost[1].wlan[0].mac.dcf.channelAccess.pendingQueue packetPopped:count 45
attr interpolationmode none
attr title "packet popped, count"
scalar WiredAndWirelessHostsWithAP.wirelessHost[1].wlan[0].mac.dcf.channelAccess.pendingQueue packetPopped:sum(packetBytes) 6760
attr interpolationmode none
attr title "packet popped, sum(packetBytes)"
statistic WiredAndWirelessHostsWithAP.wirelessHost[1].wlan[0].mac.dcf.channelAccess.pendingQueue queueingTime:histogram
field count 45
field mean 6.9114927466667e-05
field stddev 0.00039254696647589
field min 0
field max 0.002622171736
field sum 0.003110171736
field sqrsum 6.9950566130773e-06
attr interpolationmode none
attr source queueingTime(packetPopped)
attr title "queueing times, histogram"
attr unit s
bin	-inf	0
bin	0	42
bin	5e-05	0
bin	0.0001	0
bin	0.00015	0
bin	0.0002	1
bin	0.00025	1
bin	0.0003	0
bin	0.00035	0
bin	0.0004	0
bin	0.00045	0
bin	0.0005	0
bin	0.00055	0
bin	0.0006	0
bin	0.00065	0
bin	0.0007	0
bin	0.00075	0
bin	0.0008	0
bin	0.00085	0
bin	0.0009	0
bin	0.00095	0
bin	0.001	0
bin	0.00105	0
bin	0.0011	0
bin	0.00115	0
bin	0.0012	0
bin	0.00125	0
bin	0.0013	0
bin	0.00135	0
bin	0.0014	0
bin	0.00145	0
bin	0.0015	0
bin	0.00155	0
bin	0.0016	0
bin	0.00165	0
bin	0.0017	0
bin	0.00175	0
bin	0.0018	0
bin	0.00185	0
bin	0.0019	0
bin	0.00195	0
bin	0.002	0
bin	0.00205	0
bin	0.0021	0
bin	0.00215	0
bin	0.0022	0
bin	0.00225	0
bin	0.0023	0
bin	0.00235	0
bin	0.0024	0
bin	0.00245	0
bin	0.0025	0
bin	0.00255	0
bin	0.0026	1
bin	0.00265	0
bin	0.0027	0
bin	0.00275	0
bin	0.0028	0
bin	0.00285	0
bin	0.0029	0
bin	0.00295	0
bin	0.003	0
bin	0.00305	0
bin	0.0031	0
bin	0.00315	0
bin	0.0032	0
bin	0.00325	0
bin	0.0033	0
scalar WiredAndWirelessHostsWithAP.wirelessHost[1].wlan[0].mac.dcf.channelAccess.pendingQueue queueLength:max 1
attr interpolationmode sample-hold
attr source "count(packetPushed) - count(packetPopped) - count(packetRemoved) - count(packetDropped)"
attr title "queue length, max"
scalar WiredAndWirelessHostsWithAP.wirelessHost[1].wlan[0].mac.dcf.channelAccess.pendingQueue queueLength:timeavg 7.8446069275435e-05
attr interpolationmode sample-hold
attr source "count(packetPushed) - count(packetPopped) - count(packetRemoved) - count(packetDropped)"
attr title "queue length, timeavg"
scalar WiredAndWirelessHostsWithAP.wirelessHost[1].wlan[0].mac.dcf.channelAccess.pendingQueue packetPushed:count 45
attr interpolationmode none
attr title "packet pushed, count"
scalar WiredAndWirelessHostsWithAP.wirelessHost[1].wlan[0].mac.dcf.channelAccess.pendingQueue packetPushed:sum(packetBytes) 6760
attr interpolationmode none
attr title "packet pushed, sum(packetBytes)"
scalar WiredAndWirelessHostsWithAP.wirelessHost[1].wlan[0].mac.dcf.channelAccess.pendingQueue packetDropQueueOverflow:count 0
attr interpolationmode none
attr source packetDropReasonIsQueueOverflow(packetDropped)
attr title "packet drops: queue overflow, count"
scalar WiredAndWirelessHostsWithAP.wirelessHost[1].wlan[0].mac.dcf.channelAccess.pendingQueue packetDropQueueOverflow:sum(packetBytes) 0
attr interpolationmode none
attr source packetDropReasonIsQueueOverflow(packetDropped)
attr title "packet drops: queue overflow, sum(packetBytes)"
scalar WiredAndWirelessHostsWithAP.wirelessHost[1].wlan[0].mac.dcf.channelAccess.pendingQueue packetRemoved:count 0
attr interpolationmode none
attr title "packets removed, count"
scalar WiredAndWirelessHostsWithAP.wirelessHost[1].wlan[0].mac.dcf.channelAccess.pendingQueue packetRemoved:sum(packetBytes) 0
attr interpolationmode none
attr title "packets removed, sum(packetBytes)"
statistic WiredAndWirelessHostsWithAP.wirelessHost[1].wlan[0].mac.dcf.channelAccess.inProgressFrames queueingTime:histogram
field count 44
field mean 0.0061571172488409
field stddev 0.0039316683138742
field min 3.8e-05
field max 0.013372137421
field sum 0.270913158949
field sqrsum 0.0023327387603067
attr interpolationmode none
attr source queueingTime(packetDequeued)
attr title "queueing times, histogram"
bin	-inf	0
bin	0	4
bin	0.0002	0
bin	0.0004	0
bin	0.0006	0
bin	0.0008	0
bin	0.001	1
bin	0.0012	0
bin	0.0014	1
bin	0.0016	0
bin	0.0018	0
bin	0.002	0
bin	0.0022	5
bin	0.0024	0
bin	0.0026	0
bin	0.0028	0
bin	0.003	0
bin	0.0032	0
bin	0.0034	5
bin	0.0036	1
bin	0.0038	0
bin	0.004	0
bin	0.0042	0
bin	0.0044	0
bin	0.0046	2
bin	0.0048	1
bin	0.005	0
bin	0.0052	0
bin	0.0054	0
bin	0.0056	0
bin	0.0058	0
bin	0.006	2
bin	0.0062	2
bin	0.0064	0
bin	0.0066	0
bin	0.0068	0
bin	0.007	1
bin	0.0072	3
bin	0.0074	0
bin	0.0076	0
bin	0.0078	0
bin	0.008	0
bin	0.0082	0
bin	0.0084	4
bin	0.0086	0
bin	0.0088	0
bin	0.009	0
bin	0.0092	0
bin	0.0094	1
bin	0.0096	2
bin	0.0098	0
bin	0.01	0
bin	0.0102	0
bin	0.0104	0
bin	0.0106	2
bin	0.0108	3
bin	0.011	0
bin	0.0112	0
bin	0.0114	0
bin	0.0116	0
bin	0.0118	0
bin	0.012	2
bin	0.0122	0
bin	0.0124	0
bin	0.0126	0
bin	0.0128	0
bin	0.013	0
bin	0.0132	2
bin	0.0134	0
bin	0.0136	0
bin	0.0138	0
bin	0.014	0
bin	0.0142	0
bin	0.0144	0
bin	0.0146	0
bin	0.0148	0
bin	0.015	0
bin	0.0152	0
bin	0.0154	0
bin	0.0156	0
bin	0.0158	0
bin	0.016	0
bin	0.0162	0
bin	0.0164	0
bin	0.0166	0
bin	0.0168	0
scalar WiredAndWirelessHostsWithAP.wirelessHost[1].wlan[0].mac.dcf.channelAccess.inProgressFrames queueLength:max 1
attr interpolationmode sample-hold
attr source "count(packetEnqueued) - count(packetDequeued)"
attr title "queue length, max"
scalar WiredAndWirelessHostsWithAP.wirelessHost[1].wlan[0].mac.dcf.channelAccess.inProgressFrames queueLength:timeavg 0.0068330864783282
attr interpolationmode sample-hold
attr source "count(packetEnqueued) - count(packetDequeued)"
attr title "queue length, timeavg"
scalar WiredAndWirelessHostsWithAP.wirelessHost[1].wlan[0].mac.dcf.channelAccess.contention channelAccessGranted:count 84
attr title "channel access granted, count"
scalar WiredAndWirelessHostsWithAP.wirelessHost[1].wlan[0].mac.dcf.channelAccess.contention stateChanged:count 6022
attr interpolationmode none
attr title "contention state changed, count"
scalar WiredAndWirelessHostsWithAP.wirelessHost[1].wlan[0].mac.dcf.channelAccess channelOwnershipChanged:count 167
attr interpolationmode sample-hold
attr title "channel ownership, count"
scalar WiredAndWirelessHostsWithAP.wirelessHost[1].wlan[0].mac.dcf.originatorMacDataService packetAggregated:count 0
attr title "packets aggregated, count"
scalar WiredAndWirelessHostsWithAP.wirelessHost[1].wlan[0].mac.dcf.originatorMacDataService packetFragmented:count 0
attr title "packets fragmented, count"
scalar WiredAndWirelessHostsWithAP.wirelessHost[1].wlan[0].mac.dcf.recipientMacDataService packetDeaggregated:count 0
attr title "packets deaggregated, count"
scalar WiredAndWirelessHostsWithAP.wirelessHost[1].wlan[0].mac.dcf.recipientMacDataService packetDefragmented:count 423
attr title "packets defragmented, count"
scalar WiredAndWirelessHostsWithAP.wirelessHost[1].wlan[0].mac.dcf.recipientMacDataService packetDropDuplicateDetected:count 0
attr interpolationmode none
attr source packetDropReasonIsDuplicateDetected(packetDropped)
attr title "packet drops: duplicate detected, count"
scalar WiredAndWirelessHostsWithAP.wirelessHost[1].wlan[0].mac.dcf.recipientMacDataService packetDropDuplicateDetected:sum(packetBytes) 0
attr interpolationmode none
attr source packetDropReasonIsDuplicateDetected(packetDropped)
attr title "packet drops: duplicate detected, sum(packetBytes)"
scalar WiredAndWirelessHostsWithAP.wirelessHost[1].wlan[0].mac.dcf.recoveryProcedure retryLimitReached:count 0
attr title "retry limit reached, count"
scalar WiredAndWirelessHostsWithAP.wirelessHost[1].wlan[0].mac.dcf frameSequenceFinished:count 83
attr title "finished frame sequences, count"
statistic WiredAndWirelessHostsWithAP.wirelessHost[1].wlan[0].mac.dcf frameSequenceDuration:histogram
field count 83
field mean 0.0010297885935904
field stddev 0.00022572516285067
field min 3.8e-05
field max 0.001106150076
field sum 0.085472453268
field sqrsum 9.2196609071377e-05
attr source frameSequenceDuration(frameSequenceFinished)
attr title "frame sequence durations, histogram"
bin	-inf	0
bin	0	0
bin	2e-05	1
bin	4e-05	0
bin	6e-05	0
bin	8e-05	3
bin	0.0001	0
bin	0.00012	0
bin	0.00014	0
bin	0.00016	0
bin	0.00018	0
bin	0.0002	0
bin	0.00022	0
bin	0.00024	0
bin	0.00026	0
bin	0.00028	0
bin	0.0003	0
bin	0.00032	0
bin	0.00034	0
bin	0.00036	0
bin	0.00038	0
bin	0.0004	0
bin	0.00042	0
bin	0.00044	0
bin	0.00046	0
bin	0.00048	0
bin	0.0005	0
bin	0.00052	0
bin	0.00054	0
bin	0.00056	0
bin	0.00058	0
bin	0.0006	0
bin	0.00062	0
bin	0.00064	0
bin	0.00066	1
bin	0.00068	0
bin	0.0007	1
bin	0.00072	0
bin	0.00074	0
bin	0.00076	0
bin	0.00078	0
bin	0.0008	0
bin	0.00082	0
bin	0.00084	0
bin	0.00086	0
bin	0.00088	0
bin	0.0009	0
bin	0.00092	0
bin	0.00094	0
bin	0.00096	0
bin	0.00098	0
bin	0.001	0
bin	0.00102	0
bin	0.00104	0
bin	0.00106	38
bin	0.00108	0
bin	0.0011	39
bin	0.00112	0
bin	0.00114	0
bin	0.00116	0
bin	0.00118	0
bin	0.0012	0
bin	0.00122	0
bin	0.00124	0
bin	0.00126	0
bin	0.00128	0
bin	0.0013	0
bin	0.00132	0
bin	0.00134	0
bin	0.00136	0
bin	0.00138	0
statistic WiredAndWirelessHostsWithAP.wirelessHost[1].wlan[0].mac.dcf frameSequenceNumPackets:histogram
field count 83
field mean 1.9879518072289
field stddev 0.10976425998969
field min 1
field max 2
field sum 165
field sqrsum 329
attr source frameSequenceNumPackets(frameSequenceFinished)
attr title "frame sequences: number of packets, histogram"
bin	-inf	0
bin	0	0
bin	1	1
bin	2	82
bin	3	0
scalar WiredAndWirelessHostsWithAP.wirelessHost[1].wlan[0].mac.dcf packetReceivedFromPeer:count 466
attr interpolationmode none
attr title "packets received, count"
scalar WiredAndWirelessHostsWithAP.wirelessHost[1].wlan[0].mac.dcf packetReceivedFromPeer:sum(packetBytes) 20900
attr interpolationmode none
attr title "packets received, sum(packetBytes)"
scalar WiredAndWirelessHostsWithAP.wirelessHost[1].wlan[0].mac.dcf packetReceivedFromPeerUnicast:count 48
attr interpolationmode none
attr source ieee80211Unicast(packetReceivedFromPeer)
attr title "packets received: unicast, count"
scalar WiredAndWirelessHostsWithAP.wirelessHost[1].wlan[0].mac.dcf packetReceivedFromPeerUnicast:sum(packetBytes) 836
attr interpolationmode none
attr source ieee80211Unicast(packetReceivedFromPeer)
attr title "packets received: unicast, sum(packetBytes)"
scalar WiredAndWirelessHostsWithAP.wirelessHost[1].wlan[0].mac.dcf packetReceivedFromPeerMulticast:count 418
attr interpolationmode none
attr source ieee80211Multicast(packetReceivedFromPeer)
attr title "packets received: multicast, count"
scalar WiredAndWirelessHostsWithAP.wirelessHost[1].wlan[0].mac.dcf packetReceivedFromPeerMulticast:sum(packetBytes) 20064
attr interpolationmode none
attr source ieee80211Multicast(packetReceivedFromPeer)
attr title "packets received: multicast, sum(packetBytes)"
scalar WiredAndWirelessHostsWithAP.wirelessHost[1].wlan[0].mac.dcf packetReceivedFromPeerBroadcast:count 418
attr interpolationmode none
attr source ieee80211Broadcast(packetReceivedFromPeer)
attr title "packets received: broadcast, count"
scalar WiredAndWirelessHostsWithAP.wirelessHost[1].wlan[0].mac.dcf packetReceivedFromPeerBroadcast:sum(packetBytes) 20064
attr interpolationmode none
attr source ieee80211Broadcast(packetReceivedFromPeer)
attr title "packets received: broadcast, sum(packetBytes)"
scalar WiredAndWirelessHostsWithAP.wirelessHost[1].wlan[0].mac.dcf packetReceivedFromPeerWithRetry:count 9
attr interpolationmode none
attr source ieee80211Retry(packetReceivedFromPeer)
attr title "packets received: with retry, count"
scalar WiredAndWirelessHostsWithAP.wirelessHost[1].wlan[0].mac.dcf packetReceivedFromPeerWithRetry:sum(packetBytes) 576
attr interpolationmode none
attr source ieee80211Retry(packetReceivedFromPeer)
attr title "packets received: with retry, sum(packetBytes)"
scalar WiredAndWirelessHostsWithAP.wirelessHost[1].wlan[0].mac.dcf packetReceivedFromPeerWithoutRetry:count 457
attr interpolationmode none
attr source ieee80211NotRetry(packetReceivedFromPeer)
attr title "packets received: without retry, count"
scalar WiredAndWirelessHostsWithAP.wirelessHost[1].wlan[0].mac.dcf packetReceivedFromPeerWithoutRetry:sum(packetBytes) 20324
attr interpolationmode none
attr source ieee80211NotRetry(packetReceivedFromPeer)
attr title "packets received: without retry, sum(packetBytes)"
scalar WiredAndWirelessHostsWithAP.wirelessHost[1].wlan[0].mac.dcf packetSentToPeer:count 88
attr interpolationmode none
attr title "packets sent, count"
scalar WiredAndWirelessHostsWithAP.wirelessHost[1].wlan[0].mac.dcf packetSentToPeer:sum(packetBytes) 12962
attr interpolationmode none
attr title "packets sent, sum(packetBytes)"
scalar WiredAndWirelessHostsWithAP.wirelessHost[1].wlan[0].mac.dcf packetSentToPeerUnicast:count 87
attr interpolationmode none
attr source ieee80211Unicast(packetSentToPeer)
attr title "packets sent: unicast, count"
scalar WiredAndWirelessHostsWithAP.wirelessHost[1].wlan[0].mac.dcf packetSentToPeerUnicast:sum(packetBytes) 12930
attr interpolationmode none
attr source ieee80211Unicast(packetSentToPeer)
attr title "packets sent: unicast, sum(packetBytes)"
scalar WiredAndWirelessHostsWithAP.wirelessHost[1].wlan[0].mac.dcf packetSentToPeerMulticast:count 1
attr interpolationmode none
attr source ieee80211Multicast(packetSentToPeer)
attr title "packets sent: multicast, count"
scalar WiredAndWirelessHostsWithAP.wirelessHost[1].wlan[0].mac.dcf packetSentToPeerMulticast:sum(packetBytes) 32
attr interpolationmode none
attr source ieee80211Multicast(packetSentToPeer)
attr title "packets sent: multicast, sum(packetBytes)"
scalar WiredAndWirelessHostsWithAP.wirelessHost[1].wlan[0].mac.dcf packetSentToPeerBroadcast:count 1
attr interpolationmode none
attr source ieee80211Broadcast(packetSentToPeer)
attr title "packets sent: broadcast , count"
scalar WiredAndWirelessHostsWithAP.wirelessHost[1].wlan[0].mac.dcf packetSentToPeerBroadcast:sum(packetBytes) 32
attr interpolationmode none
attr source ieee80211Broadcast(packetSentToPeer)
attr title "packets sent: broadcast , sum(packetBytes)"
scalar WiredAndWirelessHostsWithAP.wirelessHost[1].wlan[0].mac.dcf packetSentToPeerWithRetry:count 39
attr interpolationmode none
attr source ieee80211Retry(packetSentToPeer)
attr title "packets sent: with retry, count"
scalar WiredAndWirelessHostsWithAP.wirelessHost[1].wlan[0].mac.dcf packetSentToPeerWithRetry:sum(packetBytes) 6296
attr interpolationmode none
attr source ieee80211Retry(packetSentToPeer)
attr title "packets sent: with retry, sum(packetBytes)"
scalar WiredAndWirelessHostsWithAP.wirelessHost[1].wlan[0].mac.dcf packetSentToPeerWithoutRetry:count 49
attr interpolationmode none
attr source ieee80211NotRetry(packetSentToPeer)
attr title "packets sent: without retry, count"
scalar WiredAndWirelessHostsWithAP.wirelessHost[1].wlan[0].mac.dcf packetSentToPeerWithoutRetry:sum(packetBytes) 6666
attr interpolationmode none
attr source ieee80211NotRetry(packetSentToPeer)
attr title "packets sent: without retry, sum(packetBytes)"
scalar WiredAndWirelessHostsWithAP.wirelessHost[1].wlan[0].mac.dcf packetDrop:count 865
attr interpolationmode none
attr source packetDropped
attr title "packet drops, count"
scalar WiredAndWirelessHostsWithAP.wirelessHost[1].wlan[0].mac.dcf packetDrop:sum(packetBytes) 67294
attr interpolationmode none
attr source packetDropped
attr title "packet drops, sum(packetBytes)"
scalar WiredAndWirelessHostsWithAP.wirelessHost[1].wlan[0].mac.dcf packetDropNotAddressedToUs:count 865
attr interpolationmode none
attr source packetDropReasonIsNotAddressedToUs(packetDropped)
attr title "packet drops: not addressed to us, count"
scalar WiredAndWirelessHostsWithAP.wirelessHost[1].wlan[0].mac.dcf packetDropNotAddressedToUs:sum(packetBytes) 67294
attr interpolationmode none
attr source packetDropReasonIsNotAddressedToUs(packetDropped)
attr title "packet drops: not addressed to us, sum(packetBytes)"
scalar WiredAndWirelessHostsWithAP.wirelessHost[1].wlan[0].mac.dcf packetDropQueueOverflow:count 0
attr interpolationmode none
attr source packetDropReasonIsQueueOverflow(packetDropped)
attr title "packet drops: queue overflow, count"
scalar WiredAndWirelessHostsWithAP.wirelessHost[1].wlan[0].mac.dcf packetDropQueueOverflow:sum(packetBytes) 0
attr interpolationmode none
attr source packetDropReasonIsQueueOverflow(packetDropped)
attr title "packet drops: queue overflow, sum(packetBytes)"
scalar WiredAndWirelessHostsWithAP.wirelessHost[1].wlan[0].mac.dcf packetDropRetryLimitReached:count 0
attr interpolationmode none
attr source packetDropReasonIsRetryLimitReached(packetDropped)
attr title "packet drops: retry limit reached, count"
scalar WiredAndWirelessHostsWithAP.wirelessHost[1].wlan[0].mac.dcf packetDropRetryLimitReached:sum(packetBytes) 0
attr interpolationmode none
attr source packetDropReasonIsRetryLimitReached(packetDropped)
attr title "packet drops: retry limit reached, sum(packetBytes)"
scalar WiredAndWirelessHostsWithAP.wirelessHost[1].wlan[0].mac.dcf linkBroken:count 0
attr interpolationmode none
attr title "link breaks, count"
scalar WiredAndWirelessHostsWithAP.wirelessHost[1].wlan[0].mac packetReceivedFromLower:count 1364
attr interpolationmode none
attr title "packets received from lower layer, count"
scalar WiredAndWirelessHostsWithAP.wirelessHost[1].wlan[0].mac packetReceivedFromLower:sum(packetBytes) 93506
attr interpolationmode none
attr title "packets received from lower layer, sum(packetBytes)"
scalar WiredAndWirelessHostsWithAP.wirelessHost[1].wlan[0].mac packetSentToLower:count 89
attr interpolationmode none
attr title "packets sent to lower layer, count"
scalar WiredAndWirelessHostsWithAP.wirelessHost[1].wlan[0].mac packetSentToLower:sum(packetBytes) 13126
attr interpolationmode none
attr title "packets sent to lower layer, sum(packetBytes)"
scalar WiredAndWirelessHostsWithAP.wirelessHost[1].wlan[0].mac packetReceivedFromUpper:count 41
attr interpolationmode none
attr title "packets received from upper layer, count"
scalar WiredAndWirelessHostsWithAP.wirelessHost[1].wlan[0].mac packetReceivedFromUpper:sum(packetBytes) 5476
attr interpolationmode none
attr title "packets received from upper layer, sum(packetBytes)"
scalar WiredAndWirelessHostsWithAP.wirelessHost[1].wlan[0].mac packetSentToUpper:count 10
attr interpolationmode none
attr title "packets sent to upper layer, count"
scalar WiredAndWirelessHostsWithAP.wirelessHost[1].wlan[0].mac packetSentToUpper:sum(packetBytes) 378
attr interpolationmode none
attr title "packets sent to upper layer, sum(packetBytes)"
scalar WiredAndWirelessHostsWithAP.wirelessHost[1].wlan[0].mac packetDrop:count 898
attr interpolationmode none
attr source packetDropped
attr title "packet drops, count"
scalar WiredAndWirelessHostsWithAP.wirelessHost[1].wlan[0].mac packetDrop:sum(packetBytes) 72606
attr interpolationmode none
attr source packetDropped
attr title "packet drops, sum(packetBytes)"
scalar WiredAndWirelessHostsWithAP.wirelessHost[1].wlan[0].mac packetDropIncorrectlyReceived:count 33
attr interpolationmode none
attr source packetDropReasonIsIncorrectlyReceived(packetDropped)
attr title "packet drops: incorrectly received, count"
scalar WiredAndWirelessHostsWithAP.wirelessHost[1].wlan[0].mac packetDropIncorrectlyReceived:sum(packetBytes) 5312
attr interpolationmode none
attr source packetDropReasonIsIncorrectlyReceived(packetDropped)
attr title "packet drops: incorrectly received, sum(packetBytes)"
scalar WiredAndWirelessHostsWithAP.wirelessHost[1].wlan[0].mac packetDropNotAddressedToUs:count 865
attr interpolationmode none
attr source packetDropReasonIsNotAddressedToUs(packetDropped)
attr title "packet drops: not addressed to us, count"
scalar WiredAndWirelessHostsWithAP.wirelessHost[1].wlan[0].mac packetDropNotAddressedToUs:sum(packetBytes) 67294
attr interpolationmode none
attr source packetDropReasonIsNotAddressedToUs(packetDropped)
attr title "packet drops: not addressed to us, sum(packetBytes)"
scalar WiredAndWirelessHostsWithAP.wirelessHost[1].wlan[0].mac packetDropQueueOverflow:count 0
attr interpolationmode none
attr source packetDropReasonIsQueueOverflow(packetDropped)
attr title "packet drops: queue overflow, count"
scalar WiredAndWirelessHostsWithAP.wirelessHost[1].wlan[0].mac packetDropQueueOverflow:sum(packetBytes) 0
attr interpolationmode none
attr source packetDropReasonIsQueueOverflow(packetDropped)
attr title "packet drops: queue overflow, sum(packetBytes)"
scalar WiredAndWirelessHostsWithAP.wirelessHost[1].wlan[0].mac packetDropRetryLimitReached:count 0
attr interpolationmode none
attr source packetDropReasonIsRetryLimitReached(packetDropped)
attr title "packet drops: retry limit reached, count"
scalar WiredAndWirelessHostsWithAP.wirelessHost[1].wlan[0].mac packetDropRetryLimitReached:sum(packetBytes) 0
attr interpolationmode none
attr source packetDropReasonIsRetryLimitReached(packetDropped)
attr title "packet drops: retry limit reached, sum(packetBytes)"
scalar WiredAndWirelessHostsWithAP.wirelessHost[1].wlan[0].mac packetDropDuplicateDetected:count 0
attr interpolationmode none
attr source packetDropReasonIsDuplicateDetected(packetDropped)
attr title "packet drops: duplicate detected, count"
scalar WiredAndWirelessHostsWithAP.wirelessHost[1].wlan[0].mac packetDropDuplicateDetected:sum(packetBytes) 0
attr interpolationmode none
attr source packetDropReasonIsDuplicateDetected(packetDropped)
attr title "packet drops: duplicate detected, sum(packetBytes)"
scalar WiredAndWirelessHostsWithAP.wirelessHost[1].wlan[0].mac packetDropOther:count 0
attr interpolationmode none
attr source packetDropReasonIsOther(packetDropped)
attr title "packet drops: other, count"
scalar WiredAndWirelessHostsWithAP.wirelessHost[1].wlan[0].mac packetDropOther:sum(packetBytes) 0
attr interpolationmode none
attr source packetDropReasonIsOther(packetDropped)
attr title "packet drops: other, sum(packetBytes)"
scalar WiredAndWirelessHostsWithAP.wirelessHost[1].wlan[0].mac linkBroken:count 0
attr interpolationmode none
attr title "link breaks, count"
statistic WiredAndWirelessHostsWithAP.wirelessHost[1].wlan[0].radio radioChannel:histogram
field count 4
field mean 0
field stddev 0
field min 0
field max 0
field sum 0
field sqrsum 0
attr interpolationmode sample-hold
attr source radioChannelChanged
attr title "Radio channel, histogram"
bin	-inf	0
bin	-0.5	0
bin	-0.48	0
bin	-0.46	0
bin	-0.44	0
bin	-0.42	0
bin	-0.4	0
bin	-0.38	0
bin	-0.36	0
bin	-0.34	0
bin	-0.32	0
bin	-0.3	0
bin	-0.28	0
bin	-0.26	0
bin	-0.24	0
bin	-0.22	0
bin	-0.2	0
bin	-0.18	0
bin	-0.16	0
bin	-0.14	0
bin	-0.12	0
bin	-0.1	0
bin	-0.08	0
bin	-0.06	0
bin	-0.04	0
bin	-0.02	0
bin	0	4
bin	0.02	0
bin	0.04	0
bin	0.06	0
bin	0.08	0
bin	0.1	0
bin	0.12	0
bin	0.14	0
bin	0.16	0
bin	0.18	0
bin	0.2	0
bin	0.22	0
bin	0.24	0
bin	0.26	0
bin	0.28	0
bin	0.3	0
bin	0.32	0
bin	0.34	0
bin	0.36	0
bin	0.38	0
bin	0.4	0
bin	0.42	0
bin	0.44	0
bin	0.46	0
bin	0.48	0
bin	0.5	0
scalar WiredAndWirelessHostsWithAP.wirelessHost[1].wlan[0].radio radioMode:count 180
attr interpolationmode sample-hold
attr source radioModeChanged
attr title "Radio mode, count"
scalar WiredAndWirelessHostsWithAP.wirelessHost[1].wlan[0].radio receptionState:count 2995
attr interpolationmode sample-hold
attr source receptionStateChanged
attr title "Radio reception state, count"
scalar WiredAndWirelessHostsWithAP.wirelessHost[1].wlan[0].radio transmissionState:count 354
attr interpolationmode sample-hold
attr source transmissionStateChanged
attr title "Radio transmission state, count"
statistic WiredAndWirelessHostsWithAP.wirelessHost[1].wlan[0].radio minSnir:histogram
field count 1364
field mean 254972.7629264
field stddev 180562.77060195
field min 0.66159498860858
field max 386632.92650133
field sum 347782848.63162
field sqrsum 1.3311292576974e+14
attr source minimumSnir(packetSentToUpper)
attr title "Min SNIR, histogram"
bin	-inf	0
bin	0	381
bin	10000	49
bin	20000	0
bin	30000	44
bin	40000	0
bin	50000	0
bin	60000	0
bin	70000	0
bin	80000	0
bin	90000	0
bin	100000	0
bin	110000	0
bin	120000	0
bin	130000	0
bin	140000	0
bin	150000	0
bin	160000	0
bin	170000	0
bin	180000	0
bin	190000	0
bin	200000	0
bin	210000	0
bin	220000	0
bin	230000	0
bin	240000	0
bin	250000	0
bin	260000	0
bin	270000	0
bin	280000	0
bin	290000	0
bin	300000	0
bin	310000	0
bin	320000	0
bin	330000	0
bin	340000	0
bin	350000	0
bin	360000	0
bin	370000	0
bin	380000	890
bin	390000	0
bin	400000	0
bin	410000	0
bin	420000	0
bin	430000	0
bin	440000	0
bin	450000	0
bin	460000	0
bin	470000	0
bin	480000	0
bin	490000	0
statistic WiredAndWirelessHostsWithAP.wirelessHost[1].wlan[0].radio packetErrorRate:histogram
field count 1364
field mean 0.024207893045236
field stddev 0.15370360423743
field min 0
field max 1
field sum 33.019566113702
field sqrsum 32.999933738333
attr source packetErrorRate(packetSentToUpper)
attr title "Packet error rate, histogram"
bin	-inf	0
bin	-0.5	0
bin	-0.48	0
bin	-0.46	0
bin	-0.44	0
bin	-0.42	0
bin	-0.4	0
bin	-0.38	0
bin	-0.36	0
bin	-0.34	0
bin	-0.32	0
bin	-0.3	0
bin	-0.28	0
bin	-0.26	0
bin	-0.24	0
bin	-0.22	0
bin	-0.2	0
bin	-0.18	0
bin	-0.16	0
bin	-0.14	0
bin	-0.12	0
bin	-0.1	0
bin	-0.08	0
bin	-0.06	0
bin	-0.04	0
bin	-0.02	0
bin	0	1331
bin	0.02	0
bin	0.04	0
bin	0.06	0
bin	0.08	0
bin	0.1	0
bin	0.12	0
bin	0.14	0
bin	0.16	0
bin	0.18	0
bin	0.2	0
bin	0.22	0
bin	0.24	0
bin	0.26	0
bin	0.28	0
bin	0.3	0
bin	0.32	0
bin	0.34	0
bin	0.36	0
bin	0.38	0
bin	0.4	0
bin	0.42	0
bin	0.44	0
bin	0.46	0
bin	0.48	0
bin	0.5	0
bin	0.52	0
bin	0.54	0
bin	0.56	0
bin	0.58	0
bin	0.6	0
bin	0.62	0
bin	0.64	0
bin	0.66	0
bin	0.68	0
bin	0.7	0
bin	0.72	0
bin	0.74	0
bin	0.76	0
bin	0.78	0
bin	0.8	0
bin	0.82	0
bin	0.84	0
bin	0.86	0
bin	0.88	0
bin	0.9	0
bin	0.92	0
bin	0.94	0
bin	0.96	0
bin	0.98	8
bin	1	25
bin	1.02	0
statistic WiredAndWirelessHostsWithAP.wirelessHost[1].wlan[0].radio bitErrorRate:histogram
field count 0
field mean -nan
field stddev nan
field min nan
field max nan
field sum 0
field sqrsum 0
attr source bitErrorRate(packetSentToUpper)
attr title "Bit error rate, histogram"
bin	-inf	0
bin	0	0
bin	1	0
statistic WiredAndWirelessHostsWithAP.wirelessHost[1].wlan[0].radio symbolErrorRate:histogram
field count 0
field mean -nan
field stddev nan
field min nan
field max nan
field sum 0
field sqrsum 0
attr source symbolErrorRate(packetSentToUpper)
attr title "Symbol error rate, histogram"
bin	-inf	0
bin	0	0
bin	1	0
scalar WiredAndWirelessHostsWithAP.wirelessHost[1].ipv4.ip packetDropAddressResolutionFailed:count 0
attr interpolationmode none
attr source packetDropReasonIsAddressResolutionFailed(packetDropped)
attr title "packet drop: address resolution failed, count"
scalar WiredAndWirelessHostsWithAP.wirelessHost[1].ipv4.ip packetDropAddressResolutionFailed:sum(packetBytes) 0
attr interpolationmode none
attr source packetDropReasonIsAddressResolutionFailed(packetDropped)
attr title "packet drop: address resolution failed, sum(packetBytes)"
scalar WiredAndWirelessHostsWithAP.wirelessHost[1].ipv4.ip packetDropHopLimitReached:count 0
attr interpolationmode none
attr source packetDropReasonIsHopLimitReached(packetDropped)
attr title "packet drop: hop limit reached, count"
scalar WiredAndWirelessHostsWithAP.wirelessHost[1].ipv4.ip packetDropHopLimitReached:sum(packetBytes) 0
attr interpolationmode none
attr source packetDropReasonIsHopLimitReached(packetDropped)
attr title "packet drop: hop limit reached, sum(packetBytes)"
scalar WiredAndWirelessHostsWithAP.wirelessHost[1].ipv4.ip packetDropForwardingDisabled:count 0
attr interpolationmode none
attr source packetDropReasonIsForwardingDisabled(packetDropped)
attr title "packet drop: forwarding disabled, count"
scalar WiredAndWirelessHostsWithAP.wirelessHost[1].ipv4.ip packetDropForwardingDisabled:sum(packetBytes) 0
attr interpolationmode none
attr source packetDropReasonIsForwardingDisabled(packetDropped)
attr title "packet drop: forwarding disabled, sum(packetBytes)"
scalar WiredAndWirelessHostsWithAP.wirelessHost[1].ipv4.ip packetDropNoInterfaceFound:count 0
attr interpolationmode none
attr source packetDropReasonIsNoInterfaceFound(packetDropped)
attr title "packet drop: no interface found, count"
scalar WiredAndWirelessHostsWithAP.wirelessHost[1].ipv4.ip packetDropNoInterfaceFound:sum(packetBytes) 0
attr interpolationmode none
attr source packetDropReasonIsNoInterfaceFound(packetDropped)
attr title "packet drop: no interface found, sum(packetBytes)"
scalar WiredAndWirelessHostsWithAP.wirelessHost[1].ipv4.ip packetDropNoRouteFound:count 0
attr interpolationmode none
attr source packetDropReasonIsNoRouteFound(packetDropped)
attr title "packet drop: no route found, count"
scalar WiredAndWirelessHostsWithAP.wirelessHost[1].ipv4.ip packetDropNoRouteFound:sum(packetBytes) 0
attr interpolationmode none
attr source packetDropReasonIsNoRouteFound(packetDropped)
attr title "packet drop: no route found, sum(packetBytes)"
scalar WiredAndWirelessHostsWithAP.wirelessHost[1].ipv4.ip packetDropUndefined:count 0
attr interpolationmode none
attr source packetDropReasonIsUndefined(packetDropped)
attr title "packet drop: undefined, count"
scalar WiredAndWirelessHostsWithAP.wirelessHost[1].ipv4.ip packetDropUndefined:sum(packetBytes) 0
attr interpolationmode none
attr source packetDropReasonIsUndefined(packetDropped)
attr title "packet drop: undefined, sum(packetBytes)"
scalar WiredAndWirelessHostsWithAP.wirelessHost[1].ipv4.arp arpResolutionFailed:count 0
attr title "ARP failed resolutions, count"
scalar WiredAndWirelessHostsWithAP.wirelessHost[1].ipv4.arp arpResolutionCompleted:count 1
attr title "ARP completed resolutions, count"
scalar WiredAndWirelessHostsWithAP.wirelessHost[1].ipv4.arp arpResolutionInitiated:count 1
attr title "ARP initiated resolutions, count"
scalar WiredAndWirelessHostsWithAP.wirelessHost[1].ipv4.arp arpReplySent:count 0
attr source arpReplySent
attr title "ARP replies sent, count"
scalar WiredAndWirelessHostsWithAP.wirelessHost[1].ipv4.arp arpReplySent:sum(packetBytes) 0
attr source arpReplySent
attr title "ARP replies sent, sum(packetBytes)"
scalar WiredAndWirelessHostsWithAP.wirelessHost[1].ipv4.arp arpRequestSent:count 1
attr source arpRequestSent
attr title "ARP request sent, count"
scalar WiredAndWirelessHostsWithAP.wirelessHost[1].ipv4.arp arpRequestSent:sum(packetBytes) 28
attr source arpRequestSent
attr title "ARP request sent, sum(packetBytes)"
scalar WiredAndWirelessHostsWithAP.wirelessHost[1].udp packetReceived:count 0
attr interpolationmode none
attr source packetReceived
attr title "packets received, count"
scalar WiredAndWirelessHostsWithAP.wirelessHost[1].udp packetReceived:sum(packetBytes) 0
attr interpolationmode none
attr source packetReceived
attr title "packets received, sum(packetBytes)"
scalar WiredAndWirelessHostsWithAP.wirelessHost[1].udp packetSent:count 40
attr interpolationmode none
attr source packetSent
attr title "packets sent, count"
scalar WiredAndWirelessHostsWithAP.wirelessHost[1].udp packetSent:sum(packetBytes) 4320
attr interpolationmode none
attr source packetSent
attr title "packets sent, sum(packetBytes)"
scalar WiredAndWirelessHostsWithAP.wirelessHost[1].udp passedUpPk:count 0
attr interpolationmode none
attr source packetSentToUpper
attr title "packets passed up, count"
scalar WiredAndWirelessHostsWithAP.wirelessHost[1].udp droppedPkWrongPort:count 0
attr interpolationmode none
attr source packetDropReasonIsNoPortFound(packetDropped)
attr title "packets dropped (wrong port), count"
scalar WiredAndWirelessHostsWithAP.wirelessHost[1].udp droppedPkBadChecksum:count 0
attr interpolationmode none
attr source packetDropReasonIsIncorrectlyReceived(packetDropped)
attr title "packets dropped (checksum error), count"
scalar WiredAndWirelessHostsWithAP.wirelessHost[1].app[0] "packets sent" 40
scalar WiredAndWirelessHostsWithAP.wirelessHost[1].app[0] "packets received" 0
scalar WiredAndWirelessHostsWithAP.wirelessHost[1].app[0] packetReceived:count 0
attr interpolationmode none
attr source packetReceived
attr title "packets received, count"
scalar WiredAndWirelessHostsWithAP.wirelessHost[1].app[0] packetReceived:sum(packetBytes) 0
attr interpolationmode none
attr source packetReceived
attr title "packets received, sum(packetBytes)"
statistic WiredAndWirelessHostsWithAP.wirelessHost[1].app[0] rcvdPkLifetime:stats
field count 0
field mean -nan
field stddev nan
field min nan
field max nan
field sum 0
field sqrsum 0
attr interpolationmode none
attr source dataAge(packetReceived)
attr title "received packet lifetime, stats"
attr unit s
scalar WiredAndWirelessHostsWithAP.wirelessHost[1].app[0] packetSent:count 40
attr interpolationmode none
attr source packetSent
attr title "packets sent, count"
scalar WiredAndWirelessHostsWithAP.wirelessHost[1].app[0] packetSent:sum(packetBytes) 4000
attr interpolationmode none
attr source packetSent
attr title "packets sent, sum(packetBytes)"
scalar WiredAndWirelessHostsWithAP.wirelessHost[2].lo[0].lo rcvdPkFromHl:count 0
attr interpolationmode none
attr source packetReceivedFromUpper
attr title "packets received from higher layer, count"
scalar WiredAndWirelessHostsWithAP.wirelessHost[2].lo[0].lo rcvdPkFromHl:sum(packetBytes) 0
attr interpolationmode none
attr source packetReceivedFromUpper
attr title "packets received from higher layer, sum(packetBytes)"
scalar WiredAndWirelessHostsWithAP.wirelessHost[2].lo[0].lo passedUpPk:count 0
attr interpolationmode none
attr source packetSentToUpper
attr title "packets passed to higher layer, count"
scalar WiredAndWirelessHostsWithAP.wirelessHost[2].lo[0].lo passedUpPk:sum(packetBytes) 0
attr interpolationmode none
attr source packetSentToUpper
attr title "packets passed to higher layer, sum(packetBytes)"
scalar WiredAndWirelessHostsWithAP.wirelessHost[2].wlan[0].agent dropConfirm:count 0
attr title "dropped confirms, count"
scalar WiredAndWirelessHostsWithAP.wirelessHost[2].wlan[0].agent acceptConfirm:count 3
attr title "accepted confirms, count"
scalar WiredAndWirelessHostsWithAP.wirelessHost[2].wlan[0].agent sentRequest:count 3
attr title "sent requests, count"
scalar WiredAndWirelessHostsWithAP.wirelessHost[2].wlan[0].mac.dcf.channelAccess.pendingQueue packetPopped:count 45
attr interpolationmode none
attr title "packet popped, count"
scalar WiredAndWirelessHostsWithAP.wirelessHost[2].wlan[0].mac.dcf.channelAccess.pendingQueue packetPopped:sum(packetBytes) 6760
attr interpolationmode none
attr title "packet popped, sum(packetBytes)"
statistic WiredAndWirelessHostsWithAP.wirelessHost[2].wlan[0].mac.dcf.channelAccess.pendingQueue queueingTime:histogram
field count 45
field mean 3.5446225955556e-05
field stddev 0.00017406627044728
field min 0
field max 0.001107080168
field sum 0.001595080168
field sqrsum 1.3896984983789e-06
attr interpolationmode none
attr source queueingTime(packetPopped)
attr title "queueing times, histogram"
attr unit s
bin	-inf	0
bin	0	42
bin	2e-05	0
bin	4e-05	0
bin	6e-05	0
bin	8e-05	1
bin	0.0001	0
bin	0.00012	0
bin	0.00014	0
bin	0.00016	0
bin	0.00018	0
bin	0.0002	0
bin	0.00022	0
bin	0.00024	0
bin	0.00026	0
bin	0.00028	0
bin	0.0003	0
bin	0.00032	0
bin	0.00034	0
bin	0.00036	0
bin	0.00038	1
bin	0.0004	0
bin	0.00042	0
bin	0.00044	0
bin	0.00046	0
bin	0.00048	0
bin	0.0005	0
bin	0.00052	0
bin	0.00054	0
bin	0.00056	0
bin	0.00058	0
bin	0.0006	0
bin	0.00062	0
bin	0.00064	0
bin	0.00066	0
bin	0.00068	0
bin	0.0007	0
bin	0.00072	0
bin	0.00074	0
bin	0.00076	0
bin	0.00078	0
bin	0.0008	0
bin	0.00082	0
bin	0.00084	0
bin	0.00086	0
bin	0.00088	0
bin	0.0009	0
bin	0.00092	0
bin	0.00094	0
bin	0.00096	0
bin	0.00098	0
bin	0.001	0
bin	0.00102	0
bin	0.00104	0
bin	0.00106	0
bin	0.00108	0
bin	0.0011	1
bin	0.00112	0
bin	0.00114	0
bin	0.00116	0
bin	0.00118	0
bin	0.0012	0
bin	0.00122	0
bin	0.00124	0
bin	0.00126	0
bin	0.00128	0
bin	0.0013	0
bin	0.00132	0
bin	0.00134	0
bin	0.00136	0
bin	0.00138	0
bin	0.0014	0
scalar WiredAndWirelessHostsWithAP.wirelessHost[2].wlan[0].mac.dcf.channelAccess.pendingQueue queueLength:max 1
attr interpolationmode sample-hold
attr source "count(packetPushed) - count(packetPopped) - count(packetRemoved) - count(packetDropped)"
attr title "queue length, max"
scalar WiredAndWirelessHostsWithAP.wirelessHost[2].wlan[0].mac.dcf.channelAccess.pendingQueue queueLength:timeavg 4.0147913709325e-05
attr interpolationmode sample-hold
attr source "count(packetPushed) - count(packetPopped) - count(packetRemoved) - count(packetDropped)"
attr title "queue length, timeavg"
scalar WiredAndWirelessHostsWithAP.wirelessHost[2].wlan[0].mac.dcf.channelAccess.pendingQueue packetPushed:count 45
attr interpolationmode none
attr title "packet pushed, count"
scalar WiredAndWirelessHostsWithAP.wirelessHost[2].wlan[0].mac.dcf.channelAccess.pendingQueue packetPushed:sum(packetBytes) 6760
attr interpolationmode none
attr title "packet pushed, sum(packetBytes)"
scalar WiredAndWirelessHostsWithAP.wirelessHost[2].wlan[0].mac.dcf.channelAccess.pendingQueue packetDropQueueOverflow:count 0
attr interpolationmode none
attr source packetDropReasonIsQueueOverflow(packetDropped)
attr title "packet drops: queue overflow, count"
scalar WiredAndWirelessHostsWithAP.wirelessHost[2].wlan[0].mac.dcf.channelAccess.pendingQueue packetDropQueueOverflow:sum(packetBytes) 0
attr interpolationmode none
attr source packetDropReasonIsQueueOverflow(packetDropped)
attr title "packet drops: queue overflow, sum(packetBytes)"
scalar WiredAndWirelessHostsWithAP.wirelessHost[2].wlan[0].mac.dcf.channelAccess.pendingQueue packetRemoved:count 0
attr interpolationmode none
attr title "packets removed, count"
scalar WiredAndWirelessHostsWithAP.wirelessHost[2].wlan[0].mac.dcf.channelAccess.pendingQueue packetRemoved:sum(packetBytes) 0
attr interpolationmode none
attr title "packets removed, sum(packetBytes)"
statistic WiredAndWirelessHostsWithAP.wirelessHost[2].wlan[0].mac.dcf.channelAccess.inProgressFrames queueingTime:histogram
field count 44
field mean 0.0077935199426818
field stddev 0.0051913921732948
field min 3.8e-05
field max 0.018272325475
field sum 0.342914877478
field sqrsum 0.0038313877022358
attr interpolationmode none
attr source queueingTime(packetDequeued)
attr title "queueing times, histogram"
bin	-inf	0
bin	0	4
bin	0.0005	0
bin	0.001	1
bin	0.0015	0
bin	0.002	5
bin	0.0025	0
bin	0.003	1
bin	0.0035	2
bin	0.004	0
bin	0.0045	4
bin	0.005	0
bin	0.0055	2
bin	0.006	1
bin	0.0065	0
bin	0.007	2
bin	0.0075	0
bin	0.008	2
bin	0.0085	1
bin	0.009	1
bin	0.0095	5
bin	0.01	0
bin	0.0105	0
bin	0.011	2
bin	0.0115	0
bin	0.012	1
bin	0.0125	0
bin	0.013	1
bin	0.0135	4
bin	0.014	0
bin	0.0145	0
bin	0.015	1
bin	0.0155	1
bin	0.016	1
bin	0.0165	1
bin	0.017	0
bin	0.0175	0
bin	0.018	1
bin	0.0185	0
bin	0.019	0
bin	0.0195	0
bin	0.02	0
bin	0.0205	0
bin	0.021	0
bin	0.0215	0
bin	0.022	0
bin	0.0225	0
bin	0.023	0
scalar WiredAndWirelessHostsWithAP.wirelessHost[2].wlan[0].mac.dcf.channelAccess.inProgressFrames queueLength:max 1
attr interpolationmode sample-hold
attr source "count(packetEnqueued) - count(packetDequeued)"
attr title "queue length, max"
scalar WiredAndWirelessHostsWithAP.wirelessHost[2].wlan[0].mac.dcf.channelAccess.inProgressFrames queueLength:timeavg 0.0086311128348443
attr interpolationmode sample-hold
attr source "count(packetEnqueued) - count(packetDequeued)"
attr title "queue length, timeavg"
scalar WiredAndWirelessHostsWithAP.wirelessHost[2].wlan[0].mac.dcf.channelAccess.contention channelAccessGranted:count 95
attr title "channel access granted, count"
scalar WiredAndWirelessHostsWithAP.wirelessHost[2].wlan[0].mac.dcf.channelAccess.contention stateChanged:count 6074
attr interpolationmode none
attr title "contention state changed, count"
scalar WiredAndWirelessHostsWithAP.wirelessHost[2].wlan[0].mac.dcf.channelAccess channelOwnershipChanged:count 189
attr interpolationmode sample-hold
attr title "channel ownership, count"
scalar WiredAndWirelessHostsWithAP.wirelessHost[2].wlan[0].mac.dcf.originatorMacDataService packetAggregated:count 0
attr title "packets aggregated, count"
scalar WiredAndWirelessHostsWithAP.wirelessHost[2].wlan[0].mac.dcf.originatorMacDataService packetFragmented:count 0
attr title "packets fragmented, count"
scalar WiredAndWirelessHostsWithAP.wirelessHost[2].wlan[0].mac.dcf.recipientMacDataService packetDeaggregated:count 0
attr title "packets deaggregated, count"
scalar WiredAndWirelessHostsWithAP.wirelessHost[2].wlan[0].mac.dcf.recipientMacDataService packetDefragmented:count 423
attr title "packets defragmented, count"
scalar WiredAndWirelessHostsWithAP.wirelessHost[2].wlan[0].mac.dcf.recipientMacDataService packetDropDuplicateDetected:count 0
attr interpolationmode none
attr source packetDropReasonIsDuplicateDetected(packetDropped)
attr title "packet drops: duplicate detected, count"
scalar WiredAndWirelessHostsWithAP.wirelessHost[2].wlan[0].mac.dcf.recipientMacDataService packetDropDuplicateDetected:sum(packetBytes) 0
attr interpolationmode none
attr source packetDropReasonIsDuplicateDetected(packetDropped)
attr title "packet drops: duplicate detected, sum(packetBytes)"
scalar WiredAndWirelessHostsWithAP.wirelessHost[2].wlan[0].mac.dcf.recoveryProcedure retryLimitReached:count 0
attr title "retry limit reached, count"
scalar WiredAndWirelessHostsWithAP.wirelessHost[2].wlan[0].mac.dcf frameSequenceFinished:count 94
attr title "finished frame sequences, count"
statistic WiredAndWirelessHostsWithAP.wirelessHost[2].wlan[0].mac.dcf frameSequenceDuration:histogram
field count 94
[...]
scalar WiredAndWirelessHostsWithAP.accessPoint.wlan[0].mac packetDropRetryLimitReached:count 0
attr interpolationmode none
attr source packetDropReasonIsRetryLimitReached(packetDropped)
attr title "packet drops: retry limit reached, count"
scalar WiredAndWirelessHostsWithAP.accessPoint.wlan[0].mac packetDropRetryLimitReached:sum(packetBytes) 0
attr interpolationmode none
attr source packetDropReasonIsRetryLimitReached(packetDropped)
attr title "packet drops: retry limit reached, sum(packetBytes)"
scalar WiredAndWirelessHostsWithAP.accessPoint.wlan[0].mac packetDropDuplicateDetected:count 0
attr interpolationmode none
attr source packetDropReasonIsDuplicateDetected(packetDropped)
attr title "packet drops: duplicate detected, count"
scalar WiredAndWirelessHostsWithAP.accessPoint.wlan[0].mac packetDropDuplicateDetected:sum(packetBytes) 0
attr interpolationmode none
attr source packetDropReasonIsDuplicateDetected(packetDropped)
attr title "packet drops: duplicate detected, sum(packetBytes)"
scalar WiredAndWirelessHostsWithAP.accessPoint.wlan[0].mac packetDropOther:count 0
attr interpolationmode none
attr source packetDropReasonIsOther(packetDropped)
attr title "packet drops: other, count"
scalar WiredAndWirelessHostsWithAP.accessPoint.wlan[0].mac packetDropOther:sum(packetBytes) 0
attr interpolationmode none
attr source packetDropReasonIsOther(packetDropped)
attr title "packet drops: other, sum(packetBytes)"
scalar WiredAndWirelessHostsWithAP.accessPoint.wlan[0].mac linkBroken:count 0
attr interpolationmode none
attr title "link breaks, count"
statistic WiredAndWirelessHostsWithAP.accessPoint.wlan[0].radio radioChannel:histogram
field count 1
field mean 0
field stddev -nan
field min 0
field max 0
field sum 0
field sqrsum 0
attr interpolationmode sample-hold
attr source radioChannelChanged
attr title "Radio channel, histogram"
bin	-inf	0
bin	-0.5	0
bin	-0.48	0
bin	-0.46	0
bin	-0.44	0
bin	-0.42	0
bin	-0.4	0
bin	-0.38	0
bin	-0.36	0
bin	-0.34	0
bin	-0.32	0
bin	-0.3	0
bin	-0.28	0
bin	-0.26	0
bin	-0.24	0
bin	-0.22	0
bin	-0.2	0
bin	-0.18	0
bin	-0.16	0
bin	-0.14	0
bin	-0.12	0
bin	-0.1	0
bin	-0.08	0
bin	-0.06	0
bin	-0.04	0
bin	-0.02	0
bin	0	1
bin	0.02	0
bin	0.04	0
bin	0.06	0
bin	0.08	0
bin	0.1	0
bin	0.12	0
bin	0.14	0
bin	0.16	0
bin	0.18	0
bin	0.2	0
bin	0.22	0
bin	0.24	0
bin	0.26	0
bin	0.28	0
bin	0.3	0
bin	0.32	0
bin	0.34	0
bin	0.36	0
bin	0.38	0
bin	0.4	0
bin	0.42	0
bin	0.44	0
bin	0.46	0
bin	0.48	0
bin	0.5	0
scalar WiredAndWirelessHostsWithAP.accessPoint.wlan[0].radio radioMode:count 1783
attr interpolationmode sample-hold
attr source radioModeChanged
attr title "Radio mode, count"
scalar WiredAndWirelessHostsWithAP.accessPoint.wlan[0].radio receptionState:count 2994
attr interpolationmode sample-hold
attr source receptionStateChanged
attr title "Radio reception state, count"
scalar WiredAndWirelessHostsWithAP.accessPoint.wlan[0].radio transmissionState:count 3560
attr interpolationmode sample-hold
attr source transmissionStateChanged
attr title "Radio transmission state, count"
statistic WiredAndWirelessHostsWithAP.accessPoint.wlan[0].radio minSnir:histogram
field count 562
field mean 31635.475178058
field stddev 94579.094923281
field min 0.33116256018897
field max 386632.92650133
field sum 17779137.050068
field sqrsum 5580711564075.1
attr source minimumSnir(packetSentToUpper)
attr title "Min SNIR, histogram"
bin	-inf	0
bin	0	432
bin	10000	49
bin	20000	44
bin	30000	0
bin	40000	0
bin	50000	0
bin	60000	0
bin	70000	0
bin	80000	0
bin	90000	0
bin	100000	0
bin	110000	0
bin	120000	0
bin	130000	0
bin	140000	0
bin	150000	0
bin	160000	0
bin	170000	0
bin	180000	0
bin	190000	0
bin	200000	0
bin	210000	0
bin	220000	0
bin	230000	0
bin	240000	0
bin	250000	0
bin	260000	0
bin	270000	0
bin	280000	0
bin	290000	0
bin	300000	0
bin	310000	0
bin	320000	0
bin	330000	0
bin	340000	0
bin	350000	0
bin	360000	0
bin	370000	0
bin	380000	37
bin	390000	0
bin	400000	0
bin	410000	0
bin	420000	0
bin	430000	0
bin	440000	0
bin	450000	0
bin	460000	0
bin	470000	0
bin	480000	0
bin	490000	0
statistic WiredAndWirelessHostsWithAP.accessPoint.wlan[0].radio packetErrorRate:histogram
field count 562
field mean 0.12908235374963
field stddev 0.33420909557654
field min 0
field max 1
field sum 72.544282807293
field sqrsum 72.02548545242
attr source packetErrorRate(packetSentToUpper)
attr title "Packet error rate, histogram"
bin	-inf	0
bin	-0.5	0
bin	-0.48	0
bin	-0.46	0
bin	-0.44	0
bin	-0.42	0
bin	-0.4	0
bin	-0.38	0
bin	-0.36	0
bin	-0.34	0
bin	-0.32	0
bin	-0.3	0
bin	-0.28	0
bin	-0.26	0
bin	-0.24	0
bin	-0.22	0
bin	-0.2	0
bin	-0.18	0
bin	-0.16	0
bin	-0.14	0
bin	-0.12	0
bin	-0.1	0
bin	-0.08	0
bin	-0.06	0
bin	-0.04	0
bin	-0.02	0
bin	0	483
bin	0.02	2
bin	0.04	2
bin	0.06	0
bin	0.08	0
bin	0.1	0
bin	0.12	3
bin	0.14	0
bin	0.16	0
bin	0.18	0
bin	0.2	0
bin	0.22	0
bin	0.24	0
bin	0.26	0
bin	0.28	0
bin	0.3	0
bin	0.32	0
bin	0.34	0
bin	0.36	0
bin	0.38	0
bin	0.4	0
bin	0.42	0
bin	0.44	0
bin	0.46	0
bin	0.48	0
bin	0.5	0
bin	0.52	0
bin	0.54	0
bin	0.56	0
bin	0.58	0
bin	0.6	0
bin	0.62	0
bin	0.64	0
bin	0.66	0
bin	0.68	0
bin	0.7	0
bin	0.72	0
bin	0.74	0
bin	0.76	0
bin	0.78	0
bin	0.8	0
bin	0.82	0
bin	0.84	0
bin	0.86	0
bin	0.88	0
bin	0.9	0
bin	0.92	0
bin	0.94	0
bin	0.96	0
bin	0.98	49
bin	1	23
bin	1.02	0
statistic WiredAndWirelessHostsWithAP.accessPoint.wlan[0].radio bitErrorRate:histogram
field count 0
field mean -nan
field stddev nan
field min nan
field max nan
field sum 0
field sqrsum 0
attr source bitErrorRate(packetSentToUpper)
attr title "Bit error rate, histogram"
bin	-inf	0
bin	0	0
bin	1	0
statistic WiredAndWirelessHostsWithAP.accessPoint.wlan[0].radio symbolErrorRate:histogram
field count 0
field mean -nan
field stddev nan
field min nan
field max nan
field sum 0
field sqrsum 0
attr source symbolErrorRate(packetSentToUpper)
attr title "Symbol error rate, histogram"
bin	-inf	0
bin	0	0
bin	1	0
scalar WiredAndWirelessHostsWithAP.accessPoint.eth[0].mac.queue packetPopped:count 10
attr interpolationmode none
attr title "packet popped, count"
scalar WiredAndWirelessHostsWithAP.accessPoint.eth[0].mac.queue packetPopped:sum(packetBytes) 640
attr interpolationmode none
attr title "packet popped, sum(packetBytes)"
statistic WiredAndWirelessHostsWithAP.accessPoint.eth[0].mac.queue queueingTime:histogram
field count 10
field mean 0
field stddev 0
field min 0
field max 0
field sum 0
field sqrsum 0
attr interpolationmode none
attr source queueingTime(packetPopped)
attr title "queueing times, histogram"
attr unit s
bin	-inf	0
bin	-0.5	0
bin	-0.48	0
bin	-0.46	0
bin	-0.44	0
bin	-0.42	0
bin	-0.4	0
bin	-0.38	0
bin	-0.36	0
bin	-0.34	0
bin	-0.32	0
bin	-0.3	0
bin	-0.28	0
bin	-0.26	0
bin	-0.24	0
bin	-0.22	0
bin	-0.2	0
bin	-0.18	0
bin	-0.16	0
bin	-0.14	0
bin	-0.12	0
bin	-0.1	0
bin	-0.08	0
bin	-0.06	0
bin	-0.04	0
bin	-0.02	0
bin	0	10
bin	0.02	0
bin	0.04	0
bin	0.06	0
bin	0.08	0
bin	0.1	0
bin	0.12	0
bin	0.14	0
bin	0.16	0
bin	0.18	0
bin	0.2	0
bin	0.22	0
bin	0.24	0
bin	0.26	0
bin	0.28	0
bin	0.3	0
bin	0.32	0
bin	0.34	0
bin	0.36	0
bin	0.38	0
bin	0.4	0
bin	0.42	0
bin	0.44	0
bin	0.46	0
bin	0.48	0
bin	0.5	0
scalar WiredAndWirelessHostsWithAP.accessPoint.eth[0].mac.queue queueLength:max 1
attr interpolationmode sample-hold
attr source "count(packetPushed) - count(packetPopped) - count(packetRemoved) - count(packetDropped)"
attr title "queue length, max"
scalar WiredAndWirelessHostsWithAP.accessPoint.eth[0].mac.queue queueLength:timeavg 0
attr interpolationmode sample-hold
attr source "count(packetPushed) - count(packetPopped) - count(packetRemoved) - count(packetDropped)"
attr title "queue length, timeavg"
scalar WiredAndWirelessHostsWithAP.accessPoint.eth[0].mac.queue packetPushed:count 10
attr interpolationmode none
attr title "packet pushed, count"
scalar WiredAndWirelessHostsWithAP.accessPoint.eth[0].mac.queue packetPushed:sum(packetBytes) 640
attr interpolationmode none
attr title "packet pushed, sum(packetBytes)"
scalar WiredAndWirelessHostsWithAP.accessPoint.eth[0].mac.queue packetDropQueueOverflow:count 0
attr interpolationmode none
attr source packetDropReasonIsQueueOverflow(packetDropped)
attr title "packet drops: queue overflow, count"
scalar WiredAndWirelessHostsWithAP.accessPoint.eth[0].mac.queue packetDropQueueOverflow:sum(packetBytes) 0
attr interpolationmode none
attr source packetDropReasonIsQueueOverflow(packetDropped)
attr title "packet drops: queue overflow, sum(packetBytes)"
scalar WiredAndWirelessHostsWithAP.accessPoint.eth[0].mac.queue packetRemoved:count 0
attr interpolationmode none
attr title "packets removed, count"
scalar WiredAndWirelessHostsWithAP.accessPoint.eth[0].mac.queue packetRemoved:sum(packetBytes) 0
attr interpolationmode none
attr title "packets removed, sum(packetBytes)"
scalar WiredAndWirelessHostsWithAP.accessPoint.eth[0].mac "simulated time" 40
scalar WiredAndWirelessHostsWithAP.accessPoint.eth[0].mac full-duplex 1
scalar WiredAndWirelessHostsWithAP.accessPoint.eth[0].mac "frames/sec sent" 0.25
scalar WiredAndWirelessHostsWithAP.accessPoint.eth[0].mac "frames/sec rcvd" 0
scalar WiredAndWirelessHostsWithAP.accessPoint.eth[0].mac "bits/sec sent" 128
scalar WiredAndWirelessHostsWithAP.accessPoint.eth[0].mac "bits/sec rcvd" 0
scalar WiredAndWirelessHostsWithAP.accessPoint.eth[0].mac "rx channel idle (%)" 100
scalar WiredAndWirelessHostsWithAP.accessPoint.eth[0].mac "rx channel utilization (%)" 0
scalar WiredAndWirelessHostsWithAP.accessPoint.eth[0].mac rxPausePkUnits:count 0
attr interpolationmode none
attr title "pause units received, count"
scalar WiredAndWirelessHostsWithAP.accessPoint.eth[0].mac rxPausePkUnits:sum 0
attr interpolationmode none
attr title "pause units received, sum"
scalar WiredAndWirelessHostsWithAP.accessPoint.eth[0].mac txPausePkUnits:count 0
attr interpolationmode none
attr title "pause units sent, count"
scalar WiredAndWirelessHostsWithAP.accessPoint.eth[0].mac txPausePkUnits:sum 0
attr interpolationmode none
attr title "pause units sent, sum"
scalar WiredAndWirelessHostsWithAP.accessPoint.eth[0].mac rxPkOk:count 0
attr interpolationmode none
attr source rxPkOk
attr title "packets received OK, count"
scalar WiredAndWirelessHostsWithAP.accessPoint.eth[0].mac rxPkOk:sum(packetBytes) 0
attr interpolationmode none
attr source rxPkOk
attr title "packets received OK, sum(packetBytes)"
scalar WiredAndWirelessHostsWithAP.accessPoint.eth[0].mac txPk:count 10
attr interpolationmode none
attr source packetSentToLower
attr title "packets transmitted, count"
scalar WiredAndWirelessHostsWithAP.accessPoint.eth[0].mac txPk:sum(packetBytes) 640
attr interpolationmode none
attr source packetSentToLower
attr title "packets transmitted, sum(packetBytes)"
scalar WiredAndWirelessHostsWithAP.accessPoint.eth[0].mac packetReceivedFromUpper:count 10
attr interpolationmode none
attr source packetReceivedFromUpper
attr title "packet bytes from higher layer, count"
scalar WiredAndWirelessHostsWithAP.accessPoint.eth[0].mac packetReceivedFromUpper:sum(packetBytes) 460
attr interpolationmode none
attr source packetReceivedFromUpper
attr title "packet bytes from higher layer, sum(packetBytes)"
scalar WiredAndWirelessHostsWithAP.accessPoint.eth[0].mac passedUpPk:count 0
attr interpolationmode none
attr source packetSentToUpper
attr title "packets passed to higher layer, count"
scalar WiredAndWirelessHostsWithAP.accessPoint.eth[0].mac passedUpPk:sum(packetBytes) 0
attr interpolationmode none
attr source packetSentToUpper
attr title "packets passed to higher layer, sum(packetBytes)"
scalar WiredAndWirelessHostsWithAP.accessPoint.eth[0].mac packetDropIncorrectlyReceived:count 0
attr interpolationmode none
attr source packetDropReasonIsIncorrectlyReceived(packetDropped)
attr title "packet drop: incorrectly received, count"
scalar WiredAndWirelessHostsWithAP.accessPoint.eth[0].mac packetDropIncorrectlyReceived:sum(packetBytes) 0
attr interpolationmode none
attr source packetDropReasonIsIncorrectlyReceived(packetDropped)
attr title "packet drop: incorrectly received, sum(packetBytes)"
scalar WiredAndWirelessHostsWithAP.accessPoint.eth[0].mac packetDropInterfaceDown:count 0
attr interpolationmode none
attr source packetDropReasonIsInterfaceDown(packetDropped)
attr title "packet drop: interface down, count"
scalar WiredAndWirelessHostsWithAP.accessPoint.eth[0].mac packetDropInterfaceDown:sum(packetBytes) 0
attr interpolationmode none
attr source packetDropReasonIsInterfaceDown(packetDropped)
attr title "packet drop: interface down, sum(packetBytes)"
scalar WiredAndWirelessHostsWithAP.accessPoint.eth[0].mac packetDropNotAddressedToUs:count 0
attr interpolationmode none
attr source packetDropReasonIsNotAddressedToUs(packetDropped)
attr title "packet drop: not addressed to us, count"
scalar WiredAndWirelessHostsWithAP.accessPoint.eth[0].mac packetDropNotAddressedToUs:sum(packetBytes) 0
attr interpolationmode none
attr source packetDropReasonIsNotAddressedToUs(packetDropped)
attr title "packet drop: not addressed to us, sum(packetBytes)"
scalar WiredAndWirelessHostsWithAP.accessPoint.eth[1].mac.queue packetPopped:count 400
attr interpolationmode none
attr title "packet popped, count"
scalar WiredAndWirelessHostsWithAP.accessPoint.eth[1].mac.queue packetPopped:sum(packetBytes) 57580
attr interpolationmode none
attr title "packet popped, sum(packetBytes)"
statistic WiredAndWirelessHostsWithAP.accessPoint.eth[1].mac.queue queueingTime:histogram
field count 400
field mean 0
field stddev 0
field min 0
field max 0
field sum 0
field sqrsum 0
attr interpolationmode none
attr source queueingTime(packetPopped)
attr title "queueing times, histogram"
attr unit s
bin	-inf	0
bin	-0.5	0
bin	-0.48	0
bin	-0.46	0
bin	-0.44	0
bin	-0.42	0
bin	-0.4	0
bin	-0.38	0
bin	-0.36	0
bin	-0.34	0
bin	-0.32	0
bin	-0.3	0
bin	-0.28	0
bin	-0.26	0
bin	-0.24	0
bin	-0.22	0
bin	-0.2	0
bin	-0.18	0
bin	-0.16	0
bin	-0.14	0
bin	-0.12	0
bin	-0.1	0
bin	-0.08	0
bin	-0.06	0
bin	-0.04	0
bin	-0.02	0
bin	0	400
bin	0.02	0
bin	0.04	0
bin	0.06	0
bin	0.08	0
bin	0.1	0
bin	0.12	0
bin	0.14	0
bin	0.16	0
bin	0.18	0
bin	0.2	0
bin	0.22	0
bin	0.24	0
bin	0.26	0
bin	0.28	0
bin	0.3	0
bin	0.32	0
bin	0.34	0
bin	0.36	0
bin	0.38	0
bin	0.4	0
bin	0.42	0
bin	0.44	0
bin	0.46	0
bin	0.48	0
bin	0.5	0
scalar WiredAndWirelessHostsWithAP.accessPoint.eth[1].mac.queue queueLength:max 1
attr interpolationmode sample-hold
attr source "count(packetPushed) - count(packetPopped) - count(packetRemoved) - count(packetDropped)"
attr title "queue length, max"
scalar WiredAndWirelessHostsWithAP.accessPoint.eth[1].mac.queue queueLength:timeavg 0
attr interpolationmode sample-hold
attr source "count(packetPushed) - count(packetPopped) - count(packetRemoved) - count(packetDropped)"
attr title "queue length, timeavg"
scalar WiredAndWirelessHostsWithAP.accessPoint.eth[1].mac.queue packetPushed:count 400
attr interpolationmode none
attr title "packet pushed, count"
scalar WiredAndWirelessHostsWithAP.accessPoint.eth[1].mac.queue packetPushed:sum(packetBytes) 57580
attr interpolationmode none
attr title "packet pushed, sum(packetBytes)"
scalar WiredAndWirelessHostsWithAP.accessPoint.eth[1].mac.queue packetDropQueueOverflow:count 0
attr interpolationmode none
attr source packetDropReasonIsQueueOverflow(packetDropped)
attr title "packet drops: queue overflow, count"
scalar WiredAndWirelessHostsWithAP.accessPoint.eth[1].mac.queue packetDropQueueOverflow:sum(packetBytes) 0
attr interpolationmode none
attr source packetDropReasonIsQueueOverflow(packetDropped)
attr title "packet drops: queue overflow, sum(packetBytes)"
scalar WiredAndWirelessHostsWithAP.accessPoint.eth[1].mac.queue packetRemoved:count 0
attr interpolationmode none
attr title "packets removed, count"
scalar WiredAndWirelessHostsWithAP.accessPoint.eth[1].mac.queue packetRemoved:sum(packetBytes) 0
attr interpolationmode none
attr title "packets removed, sum(packetBytes)"
scalar WiredAndWirelessHostsWithAP.accessPoint.eth[1].mac "simulated time" 40
scalar WiredAndWirelessHostsWithAP.accessPoint.eth[1].mac full-duplex 1
scalar WiredAndWirelessHostsWithAP.accessPoint.eth[1].mac "frames/sec sent" 10
scalar WiredAndWirelessHostsWithAP.accessPoint.eth[1].mac "frames/sec rcvd" 0.25
scalar WiredAndWirelessHostsWithAP.accessPoint.eth[1].mac "bits/sec sent" 11516
scalar WiredAndWirelessHostsWithAP.accessPoint.eth[1].mac "bits/sec rcvd" 128
scalar WiredAndWirelessHostsWithAP.accessPoint.eth[1].mac "rx channel idle (%)" 100
scalar WiredAndWirelessHostsWithAP.accessPoint.eth[1].mac "rx channel utilization (%)" 0
scalar WiredAndWirelessHostsWithAP.accessPoint.eth[1].mac rxPausePkUnits:count 0
attr interpolationmode none
attr title "pause units received, count"
scalar WiredAndWirelessHostsWithAP.accessPoint.eth[1].mac rxPausePkUnits:sum 0
attr interpolationmode none
attr title "pause units received, sum"
scalar WiredAndWirelessHostsWithAP.accessPoint.eth[1].mac txPausePkUnits:count 0
attr interpolationmode none
attr title "pause units sent, count"
scalar WiredAndWirelessHostsWithAP.accessPoint.eth[1].mac txPausePkUnits:sum 0
attr interpolationmode none
attr title "pause units sent, sum"
scalar WiredAndWirelessHostsWithAP.accessPoint.eth[1].mac rxPkOk:count 10
attr interpolationmode none
attr source rxPkOk
attr title "packets received OK, count"
scalar WiredAndWirelessHostsWithAP.accessPoint.eth[1].mac rxPkOk:sum(packetBytes) 640
attr interpolationmode none
attr source rxPkOk
attr title "packets received OK, sum(packetBytes)"
scalar WiredAndWirelessHostsWithAP.accessPoint.eth[1].mac txPk:count 400
attr interpolationmode none
attr source packetSentToLower
attr title "packets transmitted, count"
scalar WiredAndWirelessHostsWithAP.accessPoint.eth[1].mac txPk:sum(packetBytes) 57580
attr interpolationmode none
attr source packetSentToLower
attr title "packets transmitted, sum(packetBytes)"
scalar WiredAndWirelessHostsWithAP.accessPoint.eth[1].mac packetReceivedFromUpper:count 400
attr interpolationmode none
attr source packetReceivedFromUpper
attr title "packet bytes from higher layer, count"
scalar WiredAndWirelessHostsWithAP.accessPoint.eth[1].mac packetReceivedFromUpper:sum(packetBytes) 57400
attr interpolationmode none
attr source packetReceivedFromUpper
attr title "packet bytes from higher layer, sum(packetBytes)"
scalar WiredAndWirelessHostsWithAP.accessPoint.eth[1].mac passedUpPk:count 10
attr interpolationmode none
attr source packetSentToUpper
attr title "packets passed to higher layer, count"
scalar WiredAndWirelessHostsWithAP.accessPoint.eth[1].mac passedUpPk:sum(packetBytes) 640
attr interpolationmode none
attr source packetSentToUpper
attr title "packets passed to higher layer, sum(packetBytes)"
scalar WiredAndWirelessHostsWithAP.accessPoint.eth[1].mac packetDropIncorrectlyReceived:count 0
attr interpolationmode none
attr source packetDropReasonIsIncorrectlyReceived(packetDropped)
attr title "packet drop: incorrectly received, count"
scalar WiredAndWirelessHostsWithAP.accessPoint.eth[1].mac packetDropIncorrectlyReceived:sum(packetBytes) 0
attr interpolationmode none
attr source packetDropReasonIsIncorrectlyReceived(packetDropped)
attr title "packet drop: incorrectly received, sum(packetBytes)"
scalar WiredAndWirelessHostsWithAP.accessPoint.eth[1].mac packetDropInterfaceDown:count 0
attr interpolationmode none
attr source packetDropReasonIsInterfaceDown(packetDropped)
attr title "packet drop: interface down, count"
scalar WiredAndWirelessHostsWithAP.accessPoint.eth[1].mac packetDropInterfaceDown:sum(packetBytes) 0
attr interpolationmode none
attr source packetDropReasonIsInterfaceDown(packetDropped)
attr title "packet drop: interface down, sum(packetBytes)"
scalar WiredAndWirelessHostsWithAP.accessPoint.eth[1].mac packetDropNotAddressedToUs:count 0
attr interpolationmode none
attr source packetDropReasonIsNotAddressedToUs(packetDropped)
attr title "packet drop: not addressed to us, count"
scalar WiredAndWirelessHostsWithAP.accessPoint.eth[1].mac packetDropNotAddressedToUs:sum(packetBytes) 0
attr interpolationmode none
attr source packetDropReasonIsNotAddressedToUs(packetDropped)
attr title "packet drop: not addressed to us, sum(packetBytes)"

