version 2
run WithBeaconing-0-20251015-15:34:32-4299
attr configname WithBeaconing
attr datetime 20251015-15:34:32
attr experiment WithBeaconing
attr inifile omnetpp.ini
attr iterationvars ""
attr iterationvarsf ""
attr measurement ""
attr network RSUExampleScenario
attr processid 4299
attr repetition 0
attr replication #0
attr resultdir results
attr runnumber 0
attr seedset 210041226
param *.node[*].appl.sendBeacons true
param *.playgroundSizeX 1700m
param *.playgroundSizeY 1700m
param *.playgroundSizeZ 50m
param *.annotations.draw true
param *.manager.updateInterval 0.1s
param *.manager.host "\"localhost\""
param *.manager.port 9999
param *.manager.autoShutdown true
param *.manager.launchConfig "xmldoc(\"simulation_junction.launchd.xml\")"
param *.connectionManager.sendDirect true
param *.connectionManager.maxInterfDist 2600m
param *.connectionManager.drawMaxIntfDist false
param *.**.nic.mac1609_4.useServiceChannel false
param *.**.nic.mac1609_4.txPower 20mW
param *.**.nic.mac1609_4.bitrate 6Mbps
param *.**.nic.phy80211p.minPowerLevel -110dBm
param *.**.nic.phy80211p.useNoiseFloor true
param *.**.nic.phy80211p.noiseFloor -98dBm
param *.**.nic.phy80211p.decider "xmldoc(\"config.xml\")"
param *.**.nic.phy80211p.analogueModels "xmldoc(\"config.xml\")"
param *.**.nic.phy80211p.usePropagationDelay true
param *.**.nic.phy80211p.antenna "xmldoc(\"antenna.xml\", \"/root/Antenna[@id='monopole']\")"
param *.node[*].nic.phy80211p.antennaOffsetY "0 m"
param *.node[*].nic.phy80211p.antennaOffsetZ "1.895 m"
param *.node[*].applType "\"TraCIDemo11p\""
param *.node[*].appl.headerLength "80 bit"
param *.node[*].appl.sendBeacons false
param *.node[*].appl.dataOnSch false
param *.node[*].appl.beaconInterval 0.1s
param **.node[*].appl.dataUserPriority 5
param **.node[*].appl.beaconUserPriority 7
param *.node[*].veinsmobility.x 0
param *.node[*].veinsmobility.y 0
param *.node[*].veinsmobility.z 0
param *.node[*].veinsmobility.setHostSpeed false

scalar RSUExampleScenario.node[0].appl generatedWSMs 1
scalar RSUExampleScenario.node[0].appl receivedWSMs 76
scalar RSUExampleScenario.node[0].appl generatedBSMs 944
scalar RSUExampleScenario.node[0].appl receivedBSMs 42207
scalar RSUExampleScenario.node[0].appl generatedWSAs 0
scalar RSUExampleScenario.node[0].appl receivedWSAs 0
scalar RSUExampleScenario.node[0].nic.phy80211p busyTime 0.050693644067809
scalar RSUExampleScenario.node[0].nic.mac1609_4 ReceivedUnicastPackets 0
scalar RSUExampleScenario.node[0].nic.mac1609_4 ReceivedBroadcasts 42283
scalar RSUExampleScenario.node[0].nic.mac1609_4 SentPackets 945
scalar RSUExampleScenario.node[0].nic.mac1609_4 SentAcknowledgements 0
scalar RSUExampleScenario.node[0].nic.mac1609_4 RetriesExceeded 0
scalar RSUExampleScenario.node[0].nic.mac1609_4 SNIRLostPackets 3618
scalar RSUExampleScenario.node[0].nic.mac1609_4 RXTXLostPackets 0
scalar RSUExampleScenario.node[0].nic.mac1609_4 TotalLostPackets 3618
scalar RSUExampleScenario.node[0].nic.mac1609_4 DroppedPacketsInMac 0
scalar RSUExampleScenario.node[0].nic.mac1609_4 TooLittleTime 0
scalar RSUExampleScenario.node[0].nic.mac1609_4 TimesIntoBackoff 945
scalar RSUExampleScenario.node[0].nic.mac1609_4 SlotsBackoff 1416
scalar RSUExampleScenario.node[0].nic.mac1609_4 NumInternalContention 0
scalar RSUExampleScenario.node[0].nic.mac1609_4 totalBusyTime 4.870849
scalar RSUExampleScenario.node[0].nic.mac1609_4 retriesExceeded:count 0
attr source org_car2x_veins_modules_mac_sigRetriesExceeded
scalar RSUExampleScenario.node[0].nic.mac1609_4 sentAcks:count 0
attr source org_car2x_veins_modules_mac_sigSentAck
scalar RSUExampleScenario.node[0].nic.mac1609_4 sentPackets:count 945
attr source org_car2x_veins_modules_mac_sigSentPacket
scalar RSUExampleScenario.node[0].nic.mac1609_4 collisions:count 0
attr source org_car2x_veins_modules_mac_sigCollision
scalar RSUExampleScenario.node[0].nic.mac1609_4 channelBusy:timeavg 0.05159797669493
attr source org_car2x_veins_modules_mac_sigChannelBusy
scalar RSUExampleScenario.node[0].veinsmobility startTime 0.1
scalar RSUExampleScenario.node[0].veinsmobility totalTime 94.3
scalar RSUExampleScenario.node[0].veinsmobility stopTime 94.5
scalar RSUExampleScenario.node[0].veinsmobility minSpeed 0
scalar RSUExampleScenario.node[0].veinsmobility maxSpeed 11.162841897441
scalar RSUExampleScenario.node[0].veinsmobility totalDistance 746.39277123053
scalar RSUExampleScenario.node[0].veinsmobility totalCO2Emission 204.78965979601
scalar RSUExampleScenario.node[1].appl generatedWSMs 1
scalar RSUExampleScenario.node[1].appl receivedWSMs 76
scalar RSUExampleScenario.node[1].appl generatedBSMs 969
scalar RSUExampleScenario.node[1].appl receivedBSMs 44386
scalar RSUExampleScenario.node[1].appl generatedWSAs 0
scalar RSUExampleScenario.node[1].appl receivedWSAs 0
scalar RSUExampleScenario.node[1].nic.phy80211p busyTime 0.051996697626439
scalar RSUExampleScenario.node[1].nic.mac1609_4 ReceivedUnicastPackets 0
scalar RSUExampleScenario.node[1].nic.mac1609_4 ReceivedBroadcasts 44462
scalar RSUExampleScenario.node[1].nic.mac1609_4 SentPackets 970
scalar RSUExampleScenario.node[1].nic.mac1609_4 SentAcknowledgements 0
scalar RSUExampleScenario.node[1].nic.mac1609_4 RetriesExceeded 0
scalar RSUExampleScenario.node[1].nic.mac1609_4 SNIRLostPackets 3868
scalar RSUExampleScenario.node[1].nic.mac1609_4 RXTXLostPackets 0
scalar RSUExampleScenario.node[1].nic.mac1609_4 TotalLostPackets 3868
scalar RSUExampleScenario.node[1].nic.mac1609_4 DroppedPacketsInMac 0
scalar RSUExampleScenario.node[1].nic.mac1609_4 TooLittleTime 0
scalar RSUExampleScenario.node[1].nic.mac1609_4 TimesIntoBackoff 970
scalar RSUExampleScenario.node[1].nic.mac1609_4 SlotsBackoff 1435
scalar RSUExampleScenario.node[1].nic.mac1609_4 NumInternalContention 0
scalar RSUExampleScenario.node[1].nic.mac1609_4 totalBusyTime 5.124498
scalar RSUExampleScenario.node[1].nic.mac1609_4 retriesExceeded:count 0
attr source org_car2x_veins_modules_mac_sigRetriesExceeded
scalar RSUExampleScenario.node[1].nic.mac1609_4 sentAcks:count 0
attr source org_car2x_veins_modules_mac_sigSentAck
scalar RSUExampleScenario.node[1].nic.mac1609_4 sentPackets:count 970
attr source org_car2x_veins_modules_mac_sigSentPacket
scalar RSUExampleScenario.node[1].nic.mac1609_4 collisions:count 0
attr source org_car2x_veins_modules_mac_sigCollision
scalar RSUExampleScenario.node[1].nic.mac1609_4 channelBusy:timeavg 0.052884396284852
attr source org_car2x_veins_modules_mac_sigChannelBusy
scalar RSUExampleScenario.node[1].veinsmobility startTime 0.1
scalar RSUExampleScenario.node[1].veinsmobility totalTime 96.8
scalar RSUExampleScenario.node[1].veinsmobility stopTime 97
scalar RSUExampleScenario.node[1].veinsmobility minSpeed 0
scalar RSUExampleScenario.node[1].veinsmobility maxSpeed 10.483306091994
scalar RSUExampleScenario.node[1].veinsmobility totalDistance 749.03814954971
scalar RSUExampleScenario.node[1].veinsmobility totalCO2Emission 206.63278717211
scalar RSUExampleScenario.node[2].appl generatedWSMs 1
scalar RSUExampleScenario.node[2].appl receivedWSMs 79
scalar RSUExampleScenario.node[2].appl generatedBSMs 999
scalar RSUExampleScenario.node[2].appl receivedBSMs 47260
scalar RSUExampleScenario.node[2].appl generatedWSAs 0
scalar RSUExampleScenario.node[2].appl receivedWSAs 0
scalar RSUExampleScenario.node[2].nic.phy80211p busyTime 0.054315355355387
scalar RSUExampleScenario.node[2].nic.mac1609_4 ReceivedUnicastPackets 0
scalar RSUExampleScenario.node[2].nic.mac1609_4 ReceivedBroadcasts 47339
scalar RSUExampleScenario.node[2].nic.mac1609_4 SentPackets 1000
scalar RSUExampleScenario.node[2].nic.mac1609_4 SentAcknowledgements 0
scalar RSUExampleScenario.node[2].nic.mac1609_4 RetriesExceeded 0
scalar RSUExampleScenario.node[2].nic.mac1609_4 SNIRLostPackets 4712
scalar RSUExampleScenario.node[2].nic.mac1609_4 RXTXLostPackets 0
scalar RSUExampleScenario.node[2].nic.mac1609_4 TotalLostPackets 4712
scalar RSUExampleScenario.node[2].nic.mac1609_4 DroppedPacketsInMac 0
scalar RSUExampleScenario.node[2].nic.mac1609_4 TooLittleTime 0
scalar RSUExampleScenario.node[2].nic.mac1609_4 TimesIntoBackoff 1001
scalar RSUExampleScenario.node[2].nic.mac1609_4 SlotsBackoff 1494
scalar RSUExampleScenario.node[2].nic.mac1609_4 NumInternalContention 0
scalar RSUExampleScenario.node[2].nic.mac1609_4 totalBusyTime 5.51236
scalar RSUExampleScenario.node[2].nic.mac1609_4 retriesExceeded:count 0
attr source org_car2x_veins_modules_mac_sigRetriesExceeded
scalar RSUExampleScenario.node[2].nic.mac1609_4 sentAcks:count 0
attr source org_car2x_veins_modules_mac_sigSentAck
scalar RSUExampleScenario.node[2].nic.mac1609_4 sentPackets:count 1000
attr source org_car2x_veins_modules_mac_sigSentPacket
scalar RSUExampleScenario.node[2].nic.mac1609_4 collisions:count 0
attr source org_car2x_veins_modules_mac_sigCollision
scalar RSUExampleScenario.node[2].nic.mac1609_4 channelBusy:timeavg 0.055178778778812
attr source org_car2x_veins_modules_mac_sigChannelBusy
scalar RSUExampleScenario.node[2].veinsmobility startTime 0.8
scalar RSUExampleScenario.node[2].veinsmobility totalTime 99.8
scalar RSUExampleScenario.node[2].veinsmobility stopTime 100.7
scalar RSUExampleScenario.node[2].veinsmobility minSpeed 0
scalar RSUExampleScenario.node[2].veinsmobility maxSpeed 10.152365274412
scalar RSUExampleScenario.node[2].veinsmobility totalDistance 746.46076859964
scalar RSUExampleScenario.node[2].veinsmobility totalCO2Emission 213.71810696501
scalar RSUExampleScenario.node[4].appl generatedWSMs 1
scalar RSUExampleScenario.node[4].appl receivedWSMs 84
scalar RSUExampleScenario.node[4].appl generatedBSMs 1005
scalar RSUExampleScenario.node[4].appl receivedBSMs 48711
scalar RSUExampleScenario.node[4].appl generatedWSAs 0
scalar RSUExampleScenario.node[4].appl receivedWSAs 0
scalar RSUExampleScenario.node[4].nic.phy80211p busyTime 0.05567028855725
scalar RSUExampleScenario.node[4].nic.mac1609_4 ReceivedUnicastPackets 0
scalar RSUExampleScenario.node[4].nic.mac1609_4 ReceivedBroadcasts 48795
scalar RSUExampleScenario.node[4].nic.mac1609_4 SentPackets 1006
scalar RSUExampleScenario.node[4].nic.mac1609_4 SentAcknowledgements 0
scalar RSUExampleScenario.node[4].nic.mac1609_4 RetriesExceeded 0
scalar RSUExampleScenario.node[4].nic.mac1609_4 SNIRLostPackets 4875
scalar RSUExampleScenario.node[4].nic.mac1609_4 RXTXLostPackets 0
scalar RSUExampleScenario.node[4].nic.mac1609_4 TotalLostPackets 4875
scalar RSUExampleScenario.node[4].nic.mac1609_4 DroppedPacketsInMac 0
scalar RSUExampleScenario.node[4].nic.mac1609_4 TooLittleTime 0
scalar RSUExampleScenario.node[4].nic.mac1609_4 TimesIntoBackoff 1006
scalar RSUExampleScenario.node[4].nic.mac1609_4 SlotsBackoff 1534
scalar RSUExampleScenario.node[4].nic.mac1609_4 NumInternalContention 0
scalar RSUExampleScenario.node[4].nic.mac1609_4 totalBusyTime 5.679958
scalar RSUExampleScenario.node[4].nic.mac1609_4 retriesExceeded:count 0
attr source org_car2x_veins_modules_mac_sigRetriesExceeded
scalar RSUExampleScenario.node[4].nic.mac1609_4 sentAcks:count 0
attr source org_car2x_veins_modules_mac_sigSentAck
scalar RSUExampleScenario.node[4].nic.mac1609_4 sentPackets:count 1006
attr source org_car2x_veins_modules_mac_sigSentPacket
scalar RSUExampleScenario.node[4].nic.mac1609_4 collisions:count 0
attr source org_car2x_veins_modules_mac_sigCollision
scalar RSUExampleScenario.node[4].nic.mac1609_4 channelBusy:timeavg 0.056516995024914
attr source org_car2x_veins_modules_mac_sigChannelBusy
scalar RSUExampleScenario.node[4].veinsmobility startTime 1.8
scalar RSUExampleScenario.node[4].veinsmobility totalTime 100.4
scalar RSUExampleScenario.node[4].veinsmobility stopTime 102.3
scalar RSUExampleScenario.node[4].veinsmobility minSpeed 0
scalar RSUExampleScenario.node[4].veinsmobility maxSpeed 11.547113351647
scalar RSUExampleScenario.node[4].veinsmobility totalDistance 746.1984597829
scalar RSUExampleScenario.node[4].veinsmobility totalCO2Emission 231.77047811696
scalar RSUExampleScenario.node[7].appl generatedWSMs 1
scalar RSUExampleScenario.node[7].appl receivedWSMs 85
scalar RSUExampleScenario.node[7].appl generatedBSMs 1005
scalar RSUExampleScenario.node[7].appl receivedBSMs 50099
scalar RSUExampleScenario.node[7].appl generatedWSAs 0
scalar RSUExampleScenario.node[7].appl receivedWSAs 0
scalar RSUExampleScenario.node[7].nic.phy80211p busyTime 0.057108139303523
scalar RSUExampleScenario.node[7].nic.mac1609_4 ReceivedUnicastPackets 0
scalar RSUExampleScenario.node[7].nic.mac1609_4 ReceivedBroadcasts 50184
scalar RSUExampleScenario.node[7].nic.mac1609_4 SentPackets 1006
scalar RSUExampleScenario.node[7].nic.mac1609_4 SentAcknowledgements 0
scalar RSUExampleScenario.node[7].nic.mac1609_4 RetriesExceeded 0
scalar RSUExampleScenario.node[7].nic.mac1609_4 SNIRLostPackets 4873
scalar RSUExampleScenario.node[7].nic.mac1609_4 RXTXLostPackets 0
scalar RSUExampleScenario.node[7].nic.mac1609_4 TotalLostPackets 4873
scalar RSUExampleScenario.node[7].nic.mac1609_4 DroppedPacketsInMac 0
scalar RSUExampleScenario.node[7].nic.mac1609_4 TooLittleTime 0
scalar RSUExampleScenario.node[7].nic.mac1609_4 TimesIntoBackoff 1006
scalar RSUExampleScenario.node[7].nic.mac1609_4 SlotsBackoff 1448
scalar RSUExampleScenario.node[7].nic.mac1609_4 NumInternalContention 0
scalar RSUExampleScenario.node[7].nic.mac1609_4 totalBusyTime 5.821654
scalar RSUExampleScenario.node[7].nic.mac1609_4 retriesExceeded:count 0
attr source org_car2x_veins_modules_mac_sigRetriesExceeded
scalar RSUExampleScenario.node[7].nic.mac1609_4 sentAcks:count 0
attr source org_car2x_veins_modules_mac_sigSentAck
scalar RSUExampleScenario.node[7].nic.mac1609_4 sentPackets:count 1006
attr source org_car2x_veins_modules_mac_sigSentPacket
scalar RSUExampleScenario.node[7].nic.mac1609_4 collisions:count 0
attr source org_car2x_veins_modules_mac_sigCollision
scalar RSUExampleScenario.node[7].nic.mac1609_4 channelBusy:timeavg 0.057926905472679
attr source org_car2x_veins_modules_mac_sigChannelBusy
scalar RSUExampleScenario.node[7].veinsmobility startTime 3.2
scalar RSUExampleScenario.node[7].veinsmobility totalTime 100.4
scalar RSUExampleScenario.node[7].veinsmobility stopTime 103.7
scalar RSUExampleScenario.node[7].veinsmobility minSpeed 0
scalar RSUExampleScenario.node[7].veinsmobility maxSpeed 9.4537342059555
scalar RSUExampleScenario.node[7].veinsmobility totalDistance 748.83964916456
scalar RSUExampleScenario.node[7].veinsmobility totalCO2Emission 218.11565615712
scalar RSUExampleScenario.node[11].appl generatedWSMs 1
scalar RSUExampleScenario.node[11].appl receivedWSMs 86
scalar RSUExampleScenario.node[11].appl generatedBSMs 989
scalar RSUExampleScenario.node[11].appl receivedBSMs 51521
scalar RSUExampleScenario.node[11].appl generatedWSAs 0
scalar RSUExampleScenario.node[11].appl receivedWSAs 0
scalar RSUExampleScenario.node[11].nic.phy80211p busyTime 0.059630414560208
scalar RSUExampleScenario.node[11].nic.mac1609_4 ReceivedUnicastPackets 0
scalar RSUExampleScenario.node[11].nic.mac1609_4 ReceivedBroadcasts 51607
scalar RSUExampleScenario.node[11].nic.mac1609_4 SentPackets 990
scalar RSUExampleScenario.node[11].nic.mac1609_4 SentAcknowledgements 0
scalar RSUExampleScenario.node[11].nic.mac1609_4 RetriesExceeded 0
scalar RSUExampleScenario.node[11].nic.mac1609_4 SNIRLostPackets 4970
scalar RSUExampleScenario.node[11].nic.mac1609_4 RXTXLostPackets 0
scalar RSUExampleScenario.node[11].nic.mac1609_4 TotalLostPackets 4970
scalar RSUExampleScenario.node[11].nic.mac1609_4 DroppedPacketsInMac 0
scalar RSUExampleScenario.node[11].nic.mac1609_4 TooLittleTime 0
scalar RSUExampleScenario.node[11].nic.mac1609_4 TimesIntoBackoff 991
scalar RSUExampleScenario.node[11].nic.mac1609_4 SlotsBackoff 1508
scalar RSUExampleScenario.node[11].nic.mac1609_4 NumInternalContention 0
scalar RSUExampleScenario.node[11].nic.mac1609_4 totalBusyTime 5.974414
scalar RSUExampleScenario.node[11].nic.mac1609_4 retriesExceeded:count 0
attr source org_car2x_veins_modules_mac_sigRetriesExceeded
scalar RSUExampleScenario.node[11].nic.mac1609_4 sentAcks:count 0
attr source org_car2x_veins_modules_mac_sigSentAck
scalar RSUExampleScenario.node[11].nic.mac1609_4 sentPackets:count 990
attr source org_car2x_veins_modules_mac_sigSentPacket
scalar RSUExampleScenario.node[11].nic.mac1609_4 collisions:count 0
attr source org_car2x_veins_modules_mac_sigCollision
scalar RSUExampleScenario.node[11].nic.mac1609_4 channelBusy:timeavg 0.060408634984881
attr source org_car2x_veins_modules_mac_sigChannelBusy
scalar RSUExampleScenario.node[11].veinsmobility startTime 6.5
scalar RSUExampleScenario.node[11].veinsmobility totalTime 98.8
scalar RSUExampleScenario.node[11].veinsmobility stopTime 105.4
scalar RSUExampleScenario.node[11].veinsmobility minSpeed 6.1960337632027e-05
scalar RSUExampleScenario.node[11].veinsmobility maxSpeed 11.684322867341
scalar RSUExampleScenario.node[11].veinsmobility totalDistance 748.56915379471
scalar RSUExampleScenario.node[11].veinsmobility totalCO2Emission 229.75935899066
scalar RSUExampleScenario.node[14].appl generatedWSMs 1
scalar RSUExampleScenario.node[14].appl receivedWSMs 92
scalar RSUExampleScenario.node[14].appl generatedBSMs 969
scalar RSUExampleScenario.node[14].appl receivedBSMs 52831
scalar RSUExampleScenario.node[14].appl generatedWSAs 0
scalar RSUExampleScenario.node[14].appl receivedWSAs 0
scalar RSUExampleScenario.node[14].nic.phy80211p busyTime 0.062539690402529
scalar RSUExampleScenario.node[14].nic.mac1609_4 ReceivedUnicastPackets 0
scalar RSUExampleScenario.node[14].nic.mac1609_4 ReceivedBroadcasts 52923
scalar RSUExampleScenario.node[14].nic.mac1609_4 SentPackets 970
scalar RSUExampleScenario.node[14].nic.mac1609_4 SentAcknowledgements 0
scalar RSUExampleScenario.node[14].nic.mac1609_4 RetriesExceeded 0
scalar RSUExampleScenario.node[14].nic.mac1609_4 SNIRLostPackets 5213
scalar RSUExampleScenario.node[14].nic.mac1609_4 RXTXLostPackets 0
scalar RSUExampleScenario.node[14].nic.mac1609_4 TotalLostPackets 5213
scalar RSUExampleScenario.node[14].nic.mac1609_4 DroppedPacketsInMac 0
scalar RSUExampleScenario.node[14].nic.mac1609_4 TooLittleTime 0
scalar RSUExampleScenario.node[14].nic.mac1609_4 TimesIntoBackoff 970
scalar RSUExampleScenario.node[14].nic.mac1609_4 SlotsBackoff 1464
scalar RSUExampleScenario.node[14].nic.mac1609_4 NumInternalContention 0
scalar RSUExampleScenario.node[14].nic.mac1609_4 totalBusyTime 6.13153
scalar RSUExampleScenario.node[14].nic.mac1609_4 retriesExceeded:count 0
attr source org_car2x_veins_modules_mac_sigRetriesExceeded
scalar RSUExampleScenario.node[14].nic.mac1609_4 sentAcks:count 0
attr source org_car2x_veins_modules_mac_sigSentAck
scalar RSUExampleScenario.node[14].nic.mac1609_4 sentPackets:count 970
attr source org_car2x_veins_modules_mac_sigSentPacket
scalar RSUExampleScenario.node[14].nic.mac1609_4 collisions:count 0
attr source org_car2x_veins_modules_mac_sigCollision
scalar RSUExampleScenario.node[14].nic.mac1609_4 channelBusy:timeavg 0.063276883384987
attr source org_car2x_veins_modules_mac_sigChannelBusy
scalar RSUExampleScenario.node[14].veinsmobility startTime 10.4
scalar RSUExampleScenario.node[14].veinsmobility totalTime 96.8
scalar RSUExampleScenario.node[14].veinsmobility stopTime 107.3
scalar RSUExampleScenario.node[14].veinsmobility minSpeed 0.0012770600754386
scalar RSUExampleScenario.node[14].veinsmobility maxSpeed 9.863199546819
scalar RSUExampleScenario.node[14].veinsmobility totalDistance 749.00445508604
scalar RSUExampleScenario.node[14].veinsmobility totalCO2Emission 227.66200658606
scalar RSUExampleScenario.node[18].appl generatedWSMs 1
scalar RSUExampleScenario.node[18].appl receivedWSMs 92
scalar RSUExampleScenario.node[18].appl generatedBSMs 948
scalar RSUExampleScenario.node[18].appl receivedBSMs 53940
scalar RSUExampleScenario.node[18].appl generatedWSAs 0
scalar RSUExampleScenario.node[18].appl receivedWSAs 0
scalar RSUExampleScenario.node[18].nic.phy80211p busyTime 0.065277130801746
scalar RSUExampleScenario.node[18].nic.mac1609_4 ReceivedUnicastPackets 0
scalar RSUExampleScenario.node[18].nic.mac1609_4 ReceivedBroadcasts 54032
scalar RSUExampleScenario.node[18].nic.mac1609_4 SentPackets 949
scalar RSUExampleScenario.node[18].nic.mac1609_4 SentAcknowledgements 0
scalar RSUExampleScenario.node[18].nic.mac1609_4 RetriesExceeded 0
scalar RSUExampleScenario.node[18].nic.mac1609_4 SNIRLostPackets 5334
scalar RSUExampleScenario.node[18].nic.mac1609_4 RXTXLostPackets 0
scalar RSUExampleScenario.node[18].nic.mac1609_4 TotalLostPackets 5334
scalar RSUExampleScenario.node[18].nic.mac1609_4 DroppedPacketsInMac 0
scalar RSUExampleScenario.node[18].nic.mac1609_4 TooLittleTime 0
scalar RSUExampleScenario.node[18].nic.mac1609_4 TimesIntoBackoff 949
scalar RSUExampleScenario.node[18].nic.mac1609_4 SlotsBackoff 1337
scalar RSUExampleScenario.node[18].nic.mac1609_4 NumInternalContention 0
scalar RSUExampleScenario.node[18].nic.mac1609_4 totalBusyTime 6.254381
scalar RSUExampleScenario.node[18].nic.mac1609_4 retriesExceeded:count 0
attr source org_car2x_veins_modules_mac_sigRetriesExceeded
scalar RSUExampleScenario.node[18].nic.mac1609_4 sentAcks:count 0
attr source org_car2x_veins_modules_mac_sigSentAck
scalar RSUExampleScenario.node[18].nic.mac1609_4 sentPackets:count 949
attr source org_car2x_veins_modules_mac_sigSentPacket
scalar RSUExampleScenario.node[18].nic.mac1609_4 collisions:count 0
attr source org_car2x_veins_modules_mac_sigCollision
scalar RSUExampleScenario.node[18].nic.mac1609_4 channelBusy:timeavg 0.065974483122422
attr source org_car2x_veins_modules_mac_sigChannelBusy
scalar RSUExampleScenario.node[18].veinsmobility startTime 14.2
scalar RSUExampleScenario.node[18].veinsmobility totalTime 94.7
scalar RSUExampleScenario.node[18].veinsmobility stopTime 109
scalar RSUExampleScenario.node[18].veinsmobility minSpeed 0.01361271776826
scalar RSUExampleScenario.node[18].veinsmobility maxSpeed 10.564167663367
scalar RSUExampleScenario.node[18].veinsmobility totalDistance 748.99304435672
scalar RSUExampleScenario.node[18].veinsmobility totalCO2Emission 227.14351215824
scalar RSUExampleScenario.node[22].appl generatedWSMs 1
scalar RSUExampleScenario.node[22].appl receivedWSMs 96
scalar RSUExampleScenario.node[22].appl generatedBSMs 924
scalar RSUExampleScenario.node[22].appl receivedBSMs 54742
scalar RSUExampleScenario.node[22].appl generatedWSAs 0
scalar RSUExampleScenario.node[22].appl receivedWSAs 0
scalar RSUExampleScenario.node[22].nic.phy80211p busyTime 0.068041558441621
scalar RSUExampleScenario.node[22].nic.mac1609_4 ReceivedUnicastPackets 0
scalar RSUExampleScenario.node[22].nic.mac1609_4 ReceivedBroadcasts 54838
scalar RSUExampleScenario.node[22].nic.mac1609_4 SentPackets 925
scalar RSUExampleScenario.node[22].nic.mac1609_4 SentAcknowledgements 0
scalar RSUExampleScenario.node[22].nic.mac1609_4 RetriesExceeded 0
scalar RSUExampleScenario.node[22].nic.mac1609_4 SNIRLostPackets 5474
scalar RSUExampleScenario.node[22].nic.mac1609_4 RXTXLostPackets 0
scalar RSUExampleScenario.node[22].nic.mac1609_4 TotalLostPackets 5474
scalar RSUExampleScenario.node[22].nic.mac1609_4 DroppedPacketsInMac 0
scalar RSUExampleScenario.node[22].nic.mac1609_4 TooLittleTime 0
scalar RSUExampleScenario.node[22].nic.mac1609_4 TimesIntoBackoff 925
scalar RSUExampleScenario.node[22].nic.mac1609_4 SlotsBackoff 1388
scalar RSUExampleScenario.node[22].nic.mac1609_4 NumInternalContention 0
scalar RSUExampleScenario.node[22].nic.mac1609_4 totalBusyTime 6.346573
scalar RSUExampleScenario.node[22].nic.mac1609_4 retriesExceeded:count 0
attr source org_car2x_veins_modules_mac_sigRetriesExceeded
scalar RSUExampleScenario.node[22].nic.mac1609_4 sentAcks:count 0
attr source org_car2x_veins_modules_mac_sigSentAck
scalar RSUExampleScenario.node[22].nic.mac1609_4 sentPackets:count 925
attr source org_car2x_veins_modules_mac_sigSentPacket
scalar RSUExampleScenario.node[22].nic.mac1609_4 collisions:count 0
attr source org_car2x_veins_modules_mac_sigCollision
scalar RSUExampleScenario.node[22].nic.mac1609_4 channelBusy:timeavg 0.068685854978418
attr source org_car2x_veins_modules_mac_sigChannelBusy
scalar RSUExampleScenario.node[22].veinsmobility startTime 18.2
scalar RSUExampleScenario.node[22].veinsmobility totalTime 92.3
scalar RSUExampleScenario.node[22].veinsmobility stopTime 110.6
scalar RSUExampleScenario.node[22].veinsmobility minSpeed 0.087463378694867
scalar RSUExampleScenario.node[22].veinsmobility maxSpeed 11.732157271534
scalar RSUExampleScenario.node[22].veinsmobility totalDistance 748.84886326537
scalar RSUExampleScenario.node[22].veinsmobility totalCO2Emission 229.44665168131
scalar RSUExampleScenario.node[28].appl generatedWSMs 1
scalar RSUExampleScenario.node[28].appl receivedWSMs 95
scalar RSUExampleScenario.node[28].appl generatedBSMs 884
scalar RSUExampleScenario.node[28].appl receivedBSMs 55138
scalar RSUExampleScenario.node[28].appl generatedWSAs 0
scalar RSUExampleScenario.node[28].appl receivedWSAs 0
scalar RSUExampleScenario.node[28].nic.phy80211p busyTime 0.071759728506855
scalar RSUExampleScenario.node[28].nic.mac1609_4 ReceivedUnicastPackets 0
scalar RSUExampleScenario.node[28].nic.mac1609_4 ReceivedBroadcasts 55233
scalar RSUExampleScenario.node[28].nic.mac1609_4 SentPackets 885
scalar RSUExampleScenario.node[28].nic.mac1609_4 SentAcknowledgements 0
scalar RSUExampleScenario.node[28].nic.mac1609_4 RetriesExceeded 0
scalar RSUExampleScenario.node[28].nic.mac1609_4 SNIRLostPackets 5620
scalar RSUExampleScenario.node[28].nic.mac1609_4 RXTXLostPackets 0
scalar RSUExampleScenario.node[28].nic.mac1609_4 TotalLostPackets 5620
scalar RSUExampleScenario.node[28].nic.mac1609_4 DroppedPacketsInMac 0
scalar RSUExampleScenario.node[28].nic.mac1609_4 TooLittleTime 0
scalar RSUExampleScenario.node[28].nic.mac1609_4 TimesIntoBackoff 885
scalar RSUExampleScenario.node[28].nic.mac1609_4 SlotsBackoff 1315
scalar RSUExampleScenario.node[28].nic.mac1609_4 NumInternalContention 0
scalar RSUExampleScenario.node[28].nic.mac1609_4 totalBusyTime 6.394525
scalar RSUExampleScenario.node[28].nic.mac1609_4 retriesExceeded:count 0
attr source org_car2x_veins_modules_mac_sigRetriesExceeded
scalar RSUExampleScenario.node[28].nic.mac1609_4 sentAcks:count 0
attr source org_car2x_veins_modules_mac_sigSentAck
scalar RSUExampleScenario.node[28].nic.mac1609_4 sentPackets:count 885
attr source org_car2x_veins_modules_mac_sigSentPacket
scalar RSUExampleScenario.node[28].nic.mac1609_4 collisions:count 0
attr source org_car2x_veins_modules_mac_sigCollision
scalar RSUExampleScenario.node[28].nic.mac1609_4 channelBusy:timeavg 0.072336255656177
attr source org_car2x_veins_modules_mac_sigChannelBusy
scalar RSUExampleScenario.node[28].veinsmobility startTime 24
scalar RSUExampleScenario.node[28].veinsmobility totalTime 88.3
scalar RSUExampleScenario.node[28].veinsmobility stopTime 112.4
scalar RSUExampleScenario.node[28].veinsmobility minSpeed 2.4191825324187
scalar RSUExampleScenario.node[28].veinsmobility maxSpeed 10.856430493207
scalar RSUExampleScenario.node[28].veinsmobility totalDistance 749.45545271215
scalar RSUExampleScenario.node[28].veinsmobility totalCO2Emission 220.81895011296
scalar RSUExampleScenario.node[32].appl generatedWSMs 1
scalar RSUExampleScenario.node[32].appl receivedWSMs 98
scalar RSUExampleScenario.node[32].appl generatedBSMs 861
scalar RSUExampleScenario.node[32].appl receivedBSMs 55658
scalar RSUExampleScenario.node[32].appl generatedWSAs 0
scalar RSUExampleScenario.node[32].appl receivedWSAs 0
scalar RSUExampleScenario.node[32].nic.phy80211p busyTime 0.074606364692291
scalar RSUExampleScenario.node[32].nic.mac1609_4 ReceivedUnicastPackets 0
scalar RSUExampleScenario.node[32].nic.mac1609_4 ReceivedBroadcasts 55756
scalar RSUExampleScenario.node[32].nic.mac1609_4 SentPackets 862
scalar RSUExampleScenario.node[32].nic.mac1609_4 SentAcknowledgements 0
scalar RSUExampleScenario.node[32].nic.mac1609_4 RetriesExceeded 0
scalar RSUExampleScenario.node[32].nic.mac1609_4 SNIRLostPackets 5863
scalar RSUExampleScenario.node[32].nic.mac1609_4 RXTXLostPackets 0
scalar RSUExampleScenario.node[32].nic.mac1609_4 TotalLostPackets 5863
scalar RSUExampleScenario.node[32].nic.mac1609_4 DroppedPacketsInMac 0
scalar RSUExampleScenario.node[32].nic.mac1609_4 TooLittleTime 0
scalar RSUExampleScenario.node[32].nic.mac1609_4 TimesIntoBackoff 863
scalar RSUExampleScenario.node[32].nic.mac1609_4 SlotsBackoff 1278
scalar RSUExampleScenario.node[32].nic.mac1609_4 NumInternalContention 0
scalar RSUExampleScenario.node[32].nic.mac1609_4 totalBusyTime 6.467894
scalar RSUExampleScenario.node[32].nic.mac1609_4 retriesExceeded:count 0
attr source org_car2x_veins_modules_mac_sigRetriesExceeded
scalar RSUExampleScenario.node[32].nic.mac1609_4 sentAcks:count 0
attr source org_car2x_veins_modules_mac_sigSentAck
scalar RSUExampleScenario.node[32].nic.mac1609_4 sentPackets:count 862
attr source org_car2x_veins_modules_mac_sigSentPacket
scalar RSUExampleScenario.node[32].nic.mac1609_4 collisions:count 0
attr source org_car2x_veins_modules_mac_sigCollision
scalar RSUExampleScenario.node[32].nic.mac1609_4 channelBusy:timeavg 0.075120720092988
attr source org_car2x_veins_modules_mac_sigChannelBusy
scalar RSUExampleScenario.node[32].veinsmobility startTime 28.1
scalar RSUExampleScenario.node[32].veinsmobility totalTime 86
scalar RSUExampleScenario.node[32].veinsmobility stopTime 114.2
scalar RSUExampleScenario.node[32].veinsmobility minSpeed 2.9412064453048
scalar RSUExampleScenario.node[32].veinsmobility maxSpeed 10.534934194338
scalar RSUExampleScenario.node[32].veinsmobility totalDistance 749.4441899079
scalar RSUExampleScenario.node[32].veinsmobility totalCO2Emission 217.83553323863
scalar RSUExampleScenario.node[34].appl generatedWSMs 1
scalar RSUExampleScenario.node[34].appl receivedWSMs 99
scalar RSUExampleScenario.node[34].appl generatedBSMs 859
scalar RSUExampleScenario.node[34].appl receivedBSMs 56762
scalar RSUExampleScenario.node[34].appl generatedWSAs 0
scalar RSUExampleScenario.node[34].appl receivedWSAs 0
scalar RSUExampleScenario.node[34].nic.phy80211p busyTime 0.076219604190997
scalar RSUExampleScenario.node[34].nic.mac1609_4 ReceivedUnicastPackets 0
scalar RSUExampleScenario.node[34].nic.mac1609_4 ReceivedBroadcasts 56861
scalar RSUExampleScenario.node[34].nic.mac1609_4 SentPackets 860
scalar RSUExampleScenario.node[34].nic.mac1609_4 SentAcknowledgements 0
scalar RSUExampleScenario.node[34].nic.mac1609_4 RetriesExceeded 0
scalar RSUExampleScenario.node[34].nic.mac1609_4 SNIRLostPackets 5947
scalar RSUExampleScenario.node[34].nic.mac1609_4 RXTXLostPackets 0
scalar RSUExampleScenario.node[34].nic.mac1609_4 TotalLostPackets 5947
scalar RSUExampleScenario.node[34].nic.mac1609_4 DroppedPacketsInMac 0
scalar RSUExampleScenario.node[34].nic.mac1609_4 TooLittleTime 0
scalar RSUExampleScenario.node[34].nic.mac1609_4 TimesIntoBackoff 860
scalar RSUExampleScenario.node[34].nic.mac1609_4 SlotsBackoff 1340
scalar RSUExampleScenario.node[34].nic.mac1609_4 NumInternalContention 0
scalar RSUExampleScenario.node[34].nic.mac1609_4 totalBusyTime 6.587388
scalar RSUExampleScenario.node[34].nic.mac1609_4 retriesExceeded:count 0
attr source org_car2x_veins_modules_mac_sigRetriesExceeded
scalar RSUExampleScenario.node[34].nic.mac1609_4 sentAcks:count 0
attr source org_car2x_veins_modules_mac_sigSentAck
scalar RSUExampleScenario.node[34].nic.mac1609_4 sentPackets:count 860
attr source org_car2x_veins_modules_mac_sigSentPacket
scalar RSUExampleScenario.node[34].nic.mac1609_4 collisions:count 0
attr source org_car2x_veins_modules_mac_sigCollision
scalar RSUExampleScenario.node[34].nic.mac1609_4 channelBusy:timeavg 0.076686705471555
attr source org_car2x_veins_modules_mac_sigChannelBusy
scalar RSUExampleScenario.node[34].veinsmobility startTime 29.9
scalar RSUExampleScenario.node[34].veinsmobility totalTime 85.8
scalar RSUExampleScenario.node[34].veinsmobility stopTime 115.8
scalar RSUExampleScenario.node[34].veinsmobility minSpeed 2.8569598544425
scalar RSUExampleScenario.node[34].veinsmobility maxSpeed 11.500332775392
scalar RSUExampleScenario.node[34].veinsmobility totalDistance 749.20625824103
scalar RSUExampleScenario.node[34].veinsmobility totalCO2Emission 217.56612877201
scalar RSUExampleScenario.node[38].appl generatedWSMs 1
scalar RSUExampleScenario.node[38].appl receivedWSMs 103
scalar RSUExampleScenario.node[38].appl generatedBSMs 839
scalar RSUExampleScenario.node[38].appl receivedBSMs 57193
scalar RSUExampleScenario.node[38].appl generatedWSAs 0
scalar RSUExampleScenario.node[38].appl receivedWSAs 0
scalar RSUExampleScenario.node[38].nic.phy80211p busyTime 0.079046102503062
scalar RSUExampleScenario.node[38].nic.mac1609_4 ReceivedUnicastPackets 0
scalar RSUExampleScenario.node[38].nic.mac1609_4 ReceivedBroadcasts 57296
scalar RSUExampleScenario.node[38].nic.mac1609_4 SentPackets 840
scalar RSUExampleScenario.node[38].nic.mac1609_4 SentAcknowledgements 0
scalar RSUExampleScenario.node[38].nic.mac1609_4 RetriesExceeded 0
scalar RSUExampleScenario.node[38].nic.mac1609_4 SNIRLostPackets 6324
scalar RSUExampleScenario.node[38].nic.mac1609_4 RXTXLostPackets 0
scalar RSUExampleScenario.node[38].nic.mac1609_4 TotalLostPackets 6324
scalar RSUExampleScenario.node[38].nic.mac1609_4 DroppedPacketsInMac 0
scalar RSUExampleScenario.node[38].nic.mac1609_4 TooLittleTime 0
scalar RSUExampleScenario.node[38].nic.mac1609_4 TimesIntoBackoff 840
scalar RSUExampleScenario.node[38].nic.mac1609_4 SlotsBackoff 1262
scalar RSUExampleScenario.node[38].nic.mac1609_4 NumInternalContention 0
scalar RSUExampleScenario.node[38].nic.mac1609_4 totalBusyTime 6.664376
scalar RSUExampleScenario.node[38].nic.mac1609_4 retriesExceeded:count 0
attr source org_car2x_veins_modules_mac_sigRetriesExceeded
scalar RSUExampleScenario.node[38].nic.mac1609_4 sentAcks:count 0
attr source org_car2x_veins_modules_mac_sigSentAck
scalar RSUExampleScenario.node[38].nic.mac1609_4 sentPackets:count 840
attr source org_car2x_veins_modules_mac_sigSentPacket
scalar RSUExampleScenario.node[38].nic.mac1609_4 collisions:count 0
attr source org_car2x_veins_modules_mac_sigCollision
scalar RSUExampleScenario.node[38].nic.mac1609_4 channelBusy:timeavg 0.079432371871357
attr source org_car2x_veins_modules_mac_sigChannelBusy
scalar RSUExampleScenario.node[38].veinsmobility startTime 33.9
scalar RSUExampleScenario.node[38].veinsmobility totalTime 83.8
scalar RSUExampleScenario.node[38].veinsmobility stopTime 117.8
scalar RSUExampleScenario.node[38].veinsmobility minSpeed 2.3759987918077
scalar RSUExampleScenario.node[38].veinsmobility maxSpeed 10.296652343174
scalar RSUExampleScenario.node[38].veinsmobility totalDistance 749.57969877468
scalar RSUExampleScenario.node[38].veinsmobility totalCO2Emission 206.9371835637
scalar RSUExampleScenario.node[40].appl generatedWSMs 1
scalar RSUExampleScenario.node[40].appl receivedWSMs 70
scalar RSUExampleScenario.node[40].appl generatedBSMs 835
scalar RSUExampleScenario.node[40].appl receivedBSMs 58171
scalar RSUExampleScenario.node[40].appl generatedWSAs 0
scalar RSUExampleScenario.node[40].appl receivedWSAs 0
scalar RSUExampleScenario.node[40].nic.phy80211p busyTime 0.080581461077931
scalar RSUExampleScenario.node[40].nic.mac1609_4 ReceivedUnicastPackets 0
scalar RSUExampleScenario.node[40].nic.mac1609_4 ReceivedBroadcasts 58241
scalar RSUExampleScenario.node[40].nic.mac1609_4 SentPackets 836
scalar RSUExampleScenario.node[40].nic.mac1609_4 SentAcknowledgements 0
scalar RSUExampleScenario.node[40].nic.mac1609_4 RetriesExceeded 0
scalar RSUExampleScenario.node[40].nic.mac1609_4 SNIRLostPackets 6352
scalar RSUExampleScenario.node[40].nic.mac1609_4 RXTXLostPackets 88
scalar RSUExampleScenario.node[40].nic.mac1609_4 TotalLostPackets 6440
scalar RSUExampleScenario.node[40].nic.mac1609_4 DroppedPacketsInMac 0
scalar RSUExampleScenario.node[40].nic.mac1609_4 TooLittleTime 0
scalar RSUExampleScenario.node[40].nic.mac1609_4 TimesIntoBackoff 845
scalar RSUExampleScenario.node[40].nic.mac1609_4 SlotsBackoff 1261
scalar RSUExampleScenario.node[40].nic.mac1609_4 NumInternalContention 0
scalar RSUExampleScenario.node[40].nic.mac1609_4 totalBusyTime 6.765556
scalar RSUExampleScenario.node[40].nic.mac1609_4 retriesExceeded:count 0
attr source org_car2x_veins_modules_mac_sigRetriesExceeded
scalar RSUExampleScenario.node[40].nic.mac1609_4 sentAcks:count 0
attr source org_car2x_veins_modules_mac_sigSentAck
scalar RSUExampleScenario.node[40].nic.mac1609_4 sentPackets:count 836
attr source org_car2x_veins_modules_mac_sigSentPacket
scalar RSUExampleScenario.node[40].nic.mac1609_4 collisions:count 0
attr source org_car2x_veins_modules_mac_sigCollision
scalar RSUExampleScenario.node[40].nic.mac1609_4 channelBusy:timeavg 0.081024622754577
attr source org_car2x_veins_modules_mac_sigChannelBusy
scalar RSUExampleScenario.node[40].veinsmobility startTime 36
scalar RSUExampleScenario.node[40].veinsmobility totalTime 83.4
scalar RSUExampleScenario.node[40].veinsmobility stopTime 119.5
scalar RSUExampleScenario.node[40].veinsmobility minSpeed 2.196603379686
scalar RSUExampleScenario.node[40].veinsmobility maxSpeed 10.501150723245
scalar RSUExampleScenario.node[40].veinsmobility totalDistance 749.08079751228
scalar RSUExampleScenario.node[40].veinsmobility totalCO2Emission 210.60864936274
scalar RSUExampleScenario.manager roiArea 0
scalar RSUExampleScenario.node[3].appl generatedWSMs 1
scalar RSUExampleScenario.node[3].appl receivedWSMs 118
scalar RSUExampleScenario.node[3].appl generatedBSMs 1191
scalar RSUExampleScenario.node[3].appl receivedBSMs 71952
scalar RSUExampleScenario.node[3].appl generatedWSAs 0
scalar RSUExampleScenario.node[3].appl receivedWSAs 0
scalar RSUExampleScenario.node[3].nic.phy80211p busyTime 0.063851418975734
scalar RSUExampleScenario.node[3].nic.mac1609_4 ReceivedUnicastPackets 0
scalar RSUExampleScenario.node[3].nic.mac1609_4 ReceivedBroadcasts 72070
scalar RSUExampleScenario.node[3].nic.mac1609_4 SentPackets 1192
scalar RSUExampleScenario.node[3].nic.mac1609_4 SentAcknowledgements 0
scalar RSUExampleScenario.node[3].nic.mac1609_4 RetriesExceeded 0
scalar RSUExampleScenario.node[3].nic.mac1609_4 SNIRLostPackets 902
scalar RSUExampleScenario.node[3].nic.mac1609_4 RXTXLostPackets 0
scalar RSUExampleScenario.node[3].nic.mac1609_4 TotalLostPackets 902
scalar RSUExampleScenario.node[3].nic.mac1609_4 DroppedPacketsInMac 0
scalar RSUExampleScenario.node[3].nic.mac1609_4 TooLittleTime 0
scalar RSUExampleScenario.node[3].nic.mac1609_4 TimesIntoBackoff 1193
scalar RSUExampleScenario.node[3].nic.mac1609_4 SlotsBackoff 1846
scalar RSUExampleScenario.node[3].nic.mac1609_4 NumInternalContention 0
scalar RSUExampleScenario.node[3].nic.mac1609_4 totalBusyTime 7.668768
scalar RSUExampleScenario.node[3].nic.mac1609_4 retriesExceeded:count 0
attr source org_car2x_veins_modules_mac_sigRetriesExceeded
scalar RSUExampleScenario.node[3].nic.mac1609_4 sentAcks:count 0
attr source org_car2x_veins_modules_mac_sigSentAck
scalar RSUExampleScenario.node[3].nic.mac1609_4 sentPackets:count 1192
attr source org_car2x_veins_modules_mac_sigSentPacket
scalar RSUExampleScenario.node[3].nic.mac1609_4 collisions:count 0
attr source org_car2x_veins_modules_mac_sigCollision
scalar RSUExampleScenario.node[3].nic.mac1609_4 channelBusy:timeavg 0.064389319899327
attr source org_car2x_veins_modules_mac_sigChannelBusy
scalar RSUExampleScenario.node[3].veinsmobility startTime 0.9
scalar RSUExampleScenario.node[3].veinsmobility totalTime 119.1
scalar RSUExampleScenario.node[3].veinsmobility stopTime 120
scalar RSUExampleScenario.node[3].veinsmobility minSpeed 0
scalar RSUExampleScenario.node[3].veinsmobility maxSpeed 10.297867905462
scalar RSUExampleScenario.node[3].veinsmobility totalDistance 236.39899971394
scalar RSUExampleScenario.node[3].veinsmobility totalCO2Emission 150.37407078163
scalar RSUExampleScenario.node[5].appl generatedWSMs 1
scalar RSUExampleScenario.node[5].appl receivedWSMs 118
scalar RSUExampleScenario.node[5].appl generatedBSMs 1181
scalar RSUExampleScenario.node[5].appl receivedBSMs 71935
scalar RSUExampleScenario.node[5].appl generatedWSAs 0
scalar RSUExampleScenario.node[5].appl receivedWSAs 0
scalar RSUExampleScenario.node[5].nic.phy80211p busyTime 0.064364775613971
scalar RSUExampleScenario.node[5].nic.mac1609_4 ReceivedUnicastPackets 0
scalar RSUExampleScenario.node[5].nic.mac1609_4 ReceivedBroadcasts 72053
scalar RSUExampleScenario.node[5].nic.mac1609_4 SentPackets 1182
scalar RSUExampleScenario.node[5].nic.mac1609_4 SentAcknowledgements 0
scalar RSUExampleScenario.node[5].nic.mac1609_4 RetriesExceeded 0
scalar RSUExampleScenario.node[5].nic.mac1609_4 SNIRLostPackets 888
scalar RSUExampleScenario.node[5].nic.mac1609_4 RXTXLostPackets 0
scalar RSUExampleScenario.node[5].nic.mac1609_4 TotalLostPackets 888
scalar RSUExampleScenario.node[5].nic.mac1609_4 DroppedPacketsInMac 0
scalar RSUExampleScenario.node[5].nic.mac1609_4 TooLittleTime 0
scalar RSUExampleScenario.node[5].nic.mac1609_4 TimesIntoBackoff 1182
scalar RSUExampleScenario.node[5].nic.mac1609_4 SlotsBackoff 1811
scalar RSUExampleScenario.node[5].nic.mac1609_4 NumInternalContention 0
scalar RSUExampleScenario.node[5].nic.mac1609_4 totalBusyTime 7.664494
scalar RSUExampleScenario.node[5].nic.mac1609_4 retriesExceeded:count 0
attr source org_car2x_veins_modules_mac_sigRetriesExceeded
scalar RSUExampleScenario.node[5].nic.mac1609_4 sentAcks:count 0
attr source org_car2x_veins_modules_mac_sigSentAck
scalar RSUExampleScenario.node[5].nic.mac1609_4 sentPackets:count 1182
attr source org_car2x_veins_modules_mac_sigSentPacket
scalar RSUExampleScenario.node[5].nic.mac1609_4 collisions:count 0
attr source org_car2x_veins_modules_mac_sigCollision
scalar RSUExampleScenario.node[5].nic.mac1609_4 channelBusy:timeavg 0.064898340389584
attr source org_car2x_veins_modules_mac_sigChannelBusy
scalar RSUExampleScenario.node[5].veinsmobility startTime 1.9
scalar RSUExampleScenario.node[5].veinsmobility totalTime 118.1
scalar RSUExampleScenario.node[5].veinsmobility stopTime 120
scalar RSUExampleScenario.node[5].veinsmobility minSpeed 0
scalar RSUExampleScenario.node[5].veinsmobility maxSpeed 8.8310491088494
scalar RSUExampleScenario.node[5].veinsmobility totalDistance 228.89799063763
scalar RSUExampleScenario.node[5].veinsmobility totalCO2Emission 148.33152924563
scalar RSUExampleScenario.node[6].appl generatedWSMs 1
scalar RSUExampleScenario.node[6].appl receivedWSMs 105
scalar RSUExampleScenario.node[6].appl generatedBSMs 1170
scalar RSUExampleScenario.node[6].appl receivedBSMs 65273
scalar RSUExampleScenario.node[6].appl generatedWSAs 0
scalar RSUExampleScenario.node[6].appl receivedWSAs 0
scalar RSUExampleScenario.node[6].nic.phy80211p busyTime 0.06492102564111
scalar RSUExampleScenario.node[6].nic.mac1609_4 ReceivedUnicastPackets 0
scalar RSUExampleScenario.node[6].nic.mac1609_4 ReceivedBroadcasts 65378
scalar RSUExampleScenario.node[6].nic.mac1609_4 SentPackets 1171
scalar RSUExampleScenario.node[6].nic.mac1609_4 SentAcknowledgements 0
scalar RSUExampleScenario.node[6].nic.mac1609_4 RetriesExceeded 0
scalar RSUExampleScenario.node[6].nic.mac1609_4 SNIRLostPackets 7508
scalar RSUExampleScenario.node[6].nic.mac1609_4 RXTXLostPackets 0
scalar RSUExampleScenario.node[6].nic.mac1609_4 TotalLostPackets 7508
scalar RSUExampleScenario.node[6].nic.mac1609_4 DroppedPacketsInMac 0
scalar RSUExampleScenario.node[6].nic.mac1609_4 TooLittleTime 0
scalar RSUExampleScenario.node[6].nic.mac1609_4 TimesIntoBackoff 1171
scalar RSUExampleScenario.node[6].nic.mac1609_4 SlotsBackoff 1767
scalar RSUExampleScenario.node[6].nic.mac1609_4 NumInternalContention 0
scalar RSUExampleScenario.node[6].nic.mac1609_4 totalBusyTime 7.657619
scalar RSUExampleScenario.node[6].nic.mac1609_4 retriesExceeded:count 0
attr source org_car2x_veins_modules_mac_sigRetriesExceeded
scalar RSUExampleScenario.node[6].nic.mac1609_4 sentAcks:count 0
attr source org_car2x_veins_modules_mac_sigSentAck
scalar RSUExampleScenario.node[6].nic.mac1609_4 sentPackets:count 1171
attr source org_car2x_veins_modules_mac_sigSentPacket
scalar RSUExampleScenario.node[6].nic.mac1609_4 collisions:count 0
attr source org_car2x_veins_modules_mac_sigCollision
scalar RSUExampleScenario.node[6].nic.mac1609_4 channelBusy:timeavg 0.065449735042819
attr source org_car2x_veins_modules_mac_sigChannelBusy
scalar RSUExampleScenario.node[6].veinsmobility startTime 3
scalar RSUExampleScenario.node[6].veinsmobility totalTime 117
scalar RSUExampleScenario.node[6].veinsmobility stopTime 120
scalar RSUExampleScenario.node[6].veinsmobility minSpeed 1.3502024304997e-05
scalar RSUExampleScenario.node[6].veinsmobility maxSpeed 7.6443225891713
scalar RSUExampleScenario.node[6].veinsmobility totalDistance 737.80549295412
scalar RSUExampleScenario.node[6].veinsmobility totalCO2Emission 227.30277717222
scalar RSUExampleScenario.node[8].appl generatedWSMs 1
scalar RSUExampleScenario.node[8].appl receivedWSMs 103
scalar RSUExampleScenario.node[8].appl generatedBSMs 1155
scalar RSUExampleScenario.node[8].appl receivedBSMs 65988
scalar RSUExampleScenario.node[8].appl generatedWSAs 0
scalar RSUExampleScenario.node[8].appl receivedWSAs 0
scalar RSUExampleScenario.node[8].nic.phy80211p busyTime 0.065671411255497
scalar RSUExampleScenario.node[8].nic.mac1609_4 ReceivedUnicastPackets 0
scalar RSUExampleScenario.node[8].nic.mac1609_4 ReceivedBroadcasts 66091
scalar RSUExampleScenario.node[8].nic.mac1609_4 SentPackets 1156
scalar RSUExampleScenario.node[8].nic.mac1609_4 SentAcknowledgements 0
scalar RSUExampleScenario.node[8].nic.mac1609_4 RetriesExceeded 0
scalar RSUExampleScenario.node[8].nic.mac1609_4 SNIRLostPackets 6692
scalar RSUExampleScenario.node[8].nic.mac1609_4 RXTXLostPackets 0
scalar RSUExampleScenario.node[8].nic.mac1609_4 TotalLostPackets 6692
scalar RSUExampleScenario.node[8].nic.mac1609_4 DroppedPacketsInMac 0
scalar RSUExampleScenario.node[8].nic.mac1609_4 TooLittleTime 0
scalar RSUExampleScenario.node[8].nic.mac1609_4 TimesIntoBackoff 1156
scalar RSUExampleScenario.node[8].nic.mac1609_4 SlotsBackoff 1700
scalar RSUExampleScenario.node[8].nic.mac1609_4 NumInternalContention 0
scalar RSUExampleScenario.node[8].nic.mac1609_4 totalBusyTime 7.64546
scalar RSUExampleScenario.node[8].nic.mac1609_4 retriesExceeded:count 0
attr source org_car2x_veins_modules_mac_sigRetriesExceeded
scalar RSUExampleScenario.node[8].nic.mac1609_4 sentAcks:count 0
attr source org_car2x_veins_modules_mac_sigSentAck
scalar RSUExampleScenario.node[8].nic.mac1609_4 sentPackets:count 1156
attr source org_car2x_veins_modules_mac_sigSentPacket
scalar RSUExampleScenario.node[8].nic.mac1609_4 collisions:count 0
attr source org_car2x_veins_modules_mac_sigCollision
scalar RSUExampleScenario.node[8].nic.mac1609_4 channelBusy:timeavg 0.066194458874544
attr source org_car2x_veins_modules_mac_sigChannelBusy
scalar RSUExampleScenario.node[8].veinsmobility startTime 4.5
scalar RSUExampleScenario.node[8].veinsmobility totalTime 115.5
scalar RSUExampleScenario.node[8].veinsmobility stopTime 120
scalar RSUExampleScenario.node[8].veinsmobility minSpeed 0.00017944858842228
scalar RSUExampleScenario.node[8].veinsmobility maxSpeed 7.7679253621439
scalar RSUExampleScenario.node[8].veinsmobility totalDistance 722.37619509066
scalar RSUExampleScenario.node[8].veinsmobility totalCO2Emission 235.78898753422
scalar RSUExampleScenario.node[9].appl generatedWSMs 1
scalar RSUExampleScenario.node[9].appl receivedWSMs 118
scalar RSUExampleScenario.node[9].appl generatedBSMs 1153
scalar RSUExampleScenario.node[9].appl receivedBSMs 71762
scalar RSUExampleScenario.node[9].appl generatedWSAs 0
scalar RSUExampleScenario.node[9].appl receivedWSAs 0
scalar RSUExampleScenario.node[9].nic.phy80211p busyTime 0.065770893321855
scalar RSUExampleScenario.node[9].nic.mac1609_4 ReceivedUnicastPackets 0
scalar RSUExampleScenario.node[9].nic.mac1609_4 ReceivedBroadcasts 71880
scalar RSUExampleScenario.node[9].nic.mac1609_4 SentPackets 1154
scalar RSUExampleScenario.node[9].nic.mac1609_4 SentAcknowledgements 0
scalar RSUExampleScenario.node[9].nic.mac1609_4 RetriesExceeded 0
scalar RSUExampleScenario.node[9].nic.mac1609_4 SNIRLostPackets 887
scalar RSUExampleScenario.node[9].nic.mac1609_4 RXTXLostPackets 0
scalar RSUExampleScenario.node[9].nic.mac1609_4 TotalLostPackets 887
scalar RSUExampleScenario.node[9].nic.mac1609_4 DroppedPacketsInMac 0
scalar RSUExampleScenario.node[9].nic.mac1609_4 TooLittleTime 0
scalar RSUExampleScenario.node[9].nic.mac1609_4 TimesIntoBackoff 1154
scalar RSUExampleScenario.node[9].nic.mac1609_4 SlotsBackoff 1655
scalar RSUExampleScenario.node[9].nic.mac1609_4 NumInternalContention 0
scalar RSUExampleScenario.node[9].nic.mac1609_4 totalBusyTime 7.643458
scalar RSUExampleScenario.node[9].nic.mac1609_4 retriesExceeded:count 0
attr source org_car2x_veins_modules_mac_sigRetriesExceeded
scalar RSUExampleScenario.node[9].nic.mac1609_4 sentAcks:count 0
attr source org_car2x_veins_modules_mac_sigSentAck
scalar RSUExampleScenario.node[9].nic.mac1609_4 sentPackets:count 1154
attr source org_car2x_veins_modules_mac_sigSentPacket
scalar RSUExampleScenario.node[9].nic.mac1609_4 collisions:count 0
attr source org_car2x_veins_modules_mac_sigCollision
scalar RSUExampleScenario.node[9].nic.mac1609_4 channelBusy:timeavg 0.066291916739027
attr source org_car2x_veins_modules_mac_sigChannelBusy
scalar RSUExampleScenario.node[9].veinsmobility startTime 4.7
scalar RSUExampleScenario.node[9].veinsmobility totalTime 115.3
scalar RSUExampleScenario.node[9].veinsmobility stopTime 120
scalar RSUExampleScenario.node[9].veinsmobility minSpeed 0
scalar RSUExampleScenario.node[9].veinsmobility maxSpeed 10.535291677905
scalar RSUExampleScenario.node[9].veinsmobility totalDistance 221.3969812128
scalar RSUExampleScenario.node[9].veinsmobility totalCO2Emission 151.09288585663
scalar RSUExampleScenario.node[10].appl generatedWSMs 1
scalar RSUExampleScenario.node[10].appl receivedWSMs 108
scalar RSUExampleScenario.node[10].appl generatedBSMs 1136
scalar RSUExampleScenario.node[10].appl receivedBSMs 66660
scalar RSUExampleScenario.node[10].appl generatedWSAs 0
scalar RSUExampleScenario.node[10].appl receivedWSAs 0
scalar RSUExampleScenario.node[10].nic.phy80211p busyTime 0.0666130281691
scalar RSUExampleScenario.node[10].nic.mac1609_4 ReceivedUnicastPackets 0
scalar RSUExampleScenario.node[10].nic.mac1609_4 ReceivedBroadcasts 66768
scalar RSUExampleScenario.node[10].nic.mac1609_4 SentPackets 1137
scalar RSUExampleScenario.node[10].nic.mac1609_4 SentAcknowledgements 0
scalar RSUExampleScenario.node[10].nic.mac1609_4 RetriesExceeded 0
scalar RSUExampleScenario.node[10].nic.mac1609_4 SNIRLostPackets 5845
scalar RSUExampleScenario.node[10].nic.mac1609_4 RXTXLostPackets 1
scalar RSUExampleScenario.node[10].nic.mac1609_4 TotalLostPackets 5846
scalar RSUExampleScenario.node[10].nic.mac1609_4 DroppedPacketsInMac 0
scalar RSUExampleScenario.node[10].nic.mac1609_4 TooLittleTime 0
scalar RSUExampleScenario.node[10].nic.mac1609_4 TimesIntoBackoff 1137
scalar RSUExampleScenario.node[10].nic.mac1609_4 SlotsBackoff 1651
scalar RSUExampleScenario.node[10].nic.mac1609_4 NumInternalContention 0
scalar RSUExampleScenario.node[10].nic.mac1609_4 totalBusyTime 7.625889000001
scalar RSUExampleScenario.node[10].nic.mac1609_4 retriesExceeded:count 0
attr source org_car2x_veins_modules_mac_sigRetriesExceeded
scalar RSUExampleScenario.node[10].nic.mac1609_4 sentAcks:count 0
attr source org_car2x_veins_modules_mac_sigSentAck
scalar RSUExampleScenario.node[10].nic.mac1609_4 sentPackets:count 1137
attr source org_car2x_veins_modules_mac_sigSentPacket
scalar RSUExampleScenario.node[10].nic.mac1609_4 collisions:count 0
attr source org_car2x_veins_modules_mac_sigCollision
scalar RSUExampleScenario.node[10].nic.mac1609_4 channelBusy:timeavg 0.06712930457756
attr source org_car2x_veins_modules_mac_sigChannelBusy
scalar RSUExampleScenario.node[10].veinsmobility startTime 6.4
scalar RSUExampleScenario.node[10].veinsmobility totalTime 113.6
scalar RSUExampleScenario.node[10].veinsmobility stopTime 120
scalar RSUExampleScenario.node[10].veinsmobility minSpeed 0.0011491445268957
scalar RSUExampleScenario.node[10].veinsmobility maxSpeed 7.8307371863478
scalar RSUExampleScenario.node[10].veinsmobility totalDistance 706.98707494167
scalar RSUExampleScenario.node[10].veinsmobility totalCO2Emission 231.13038745859
scalar RSUExampleScenario.node[12].appl generatedWSMs 1
scalar RSUExampleScenario.node[12].appl receivedWSMs 109
scalar RSUExampleScenario.node[12].appl generatedBSMs 1116
scalar RSUExampleScenario.node[12].appl receivedBSMs 67094
scalar RSUExampleScenario.node[12].appl generatedWSAs 0
scalar RSUExampleScenario.node[12].appl receivedWSAs 0
scalar RSUExampleScenario.node[12].nic.phy80211p busyTime 0.067603870967829
scalar RSUExampleScenario.node[12].nic.mac1609_4 ReceivedUnicastPackets 0
scalar RSUExampleScenario.node[12].nic.mac1609_4 ReceivedBroadcasts 67203
scalar RSUExampleScenario.node[12].nic.mac1609_4 SentPackets 1117
scalar RSUExampleScenario.node[12].nic.mac1609_4 SentAcknowledgements 0
scalar RSUExampleScenario.node[12].nic.mac1609_4 RetriesExceeded 0
scalar RSUExampleScenario.node[12].nic.mac1609_4 SNIRLostPackets 5191
scalar RSUExampleScenario.node[12].nic.mac1609_4 RXTXLostPackets 1
scalar RSUExampleScenario.node[12].nic.mac1609_4 TotalLostPackets 5192
scalar RSUExampleScenario.node[12].nic.mac1609_4 DroppedPacketsInMac 0
scalar RSUExampleScenario.node[12].nic.mac1609_4 TooLittleTime 0
scalar RSUExampleScenario.node[12].nic.mac1609_4 TimesIntoBackoff 1117
scalar RSUExampleScenario.node[12].nic.mac1609_4 SlotsBackoff 1634
scalar RSUExampleScenario.node[12].nic.mac1609_4 NumInternalContention 0
scalar RSUExampleScenario.node[12].nic.mac1609_4 totalBusyTime 7.601013
scalar RSUExampleScenario.node[12].nic.mac1609_4 retriesExceeded:count 0
attr source org_car2x_veins_modules_mac_sigRetriesExceeded
scalar RSUExampleScenario.node[12].nic.mac1609_4 sentAcks:count 0
attr source org_car2x_veins_modules_mac_sigSentAck
scalar RSUExampleScenario.node[12].nic.mac1609_4 sentPackets:count 1117
attr source org_car2x_veins_modules_mac_sigSentPacket
scalar RSUExampleScenario.node[12].nic.mac1609_4 collisions:count 0
attr source org_car2x_veins_modules_mac_sigCollision
scalar RSUExampleScenario.node[12].nic.mac1609_4 channelBusy:timeavg 0.068109435483958
attr source org_car2x_veins_modules_mac_sigChannelBusy
scalar RSUExampleScenario.node[12].veinsmobility startTime 8.4
scalar RSUExampleScenario.node[12].veinsmobility totalTime 111.6
scalar RSUExampleScenario.node[12].veinsmobility stopTime 120
scalar RSUExampleScenario.node[12].veinsmobility minSpeed 0.0039948818194949
scalar RSUExampleScenario.node[12].veinsmobility maxSpeed 7.9330786405588
scalar RSUExampleScenario.node[12].veinsmobility totalDistance 691.55338240142
scalar RSUExampleScenario.node[12].veinsmobility totalCO2Emission 227.56710575711
scalar RSUExampleScenario.node[13].appl generatedWSMs 1
scalar RSUExampleScenario.node[13].appl receivedWSMs 118
scalar RSUExampleScenario.node[13].appl generatedBSMs 1116
scalar RSUExampleScenario.node[13].appl receivedBSMs 71392
scalar RSUExampleScenario.node[13].appl generatedWSAs 0
scalar RSUExampleScenario.node[13].appl receivedWSAs 0
scalar RSUExampleScenario.node[13].nic.phy80211p busyTime 0.067604802867471
scalar RSUExampleScenario.node[13].nic.mac1609_4 ReceivedUnicastPackets 0
scalar RSUExampleScenario.node[13].nic.mac1609_4 ReceivedBroadcasts 71510
scalar RSUExampleScenario.node[13].nic.mac1609_4 SentPackets 1117
scalar RSUExampleScenario.node[13].nic.mac1609_4 SentAcknowledgements 0
scalar RSUExampleScenario.node[13].nic.mac1609_4 RetriesExceeded 0
scalar RSUExampleScenario.node[13].nic.mac1609_4 SNIRLostPackets 885
scalar RSUExampleScenario.node[13].nic.mac1609_4 RXTXLostPackets 0
scalar RSUExampleScenario.node[13].nic.mac1609_4 TotalLostPackets 885
scalar RSUExampleScenario.node[13].nic.mac1609_4 DroppedPacketsInMac 0
scalar RSUExampleScenario.node[13].nic.mac1609_4 TooLittleTime 0
scalar RSUExampleScenario.node[13].nic.mac1609_4 TimesIntoBackoff 1117
scalar RSUExampleScenario.node[13].nic.mac1609_4 SlotsBackoff 1690
scalar RSUExampleScenario.node[13].nic.mac1609_4 NumInternalContention 0
scalar RSUExampleScenario.node[13].nic.mac1609_4 totalBusyTime 7.600885
scalar RSUExampleScenario.node[13].nic.mac1609_4 retriesExceeded:count 0
attr source org_car2x_veins_modules_mac_sigRetriesExceeded
scalar RSUExampleScenario.node[13].nic.mac1609_4 sentAcks:count 0
attr source org_car2x_veins_modules_mac_sigSentAck
scalar RSUExampleScenario.node[13].nic.mac1609_4 sentPackets:count 1117
attr source org_car2x_veins_modules_mac_sigSentPacket
scalar RSUExampleScenario.node[13].nic.mac1609_4 collisions:count 0
attr source org_car2x_veins_modules_mac_sigCollision
scalar RSUExampleScenario.node[13].nic.mac1609_4 channelBusy:timeavg 0.068108288530553
attr source org_car2x_veins_modules_mac_sigChannelBusy
scalar RSUExampleScenario.node[13].veinsmobility startTime 8.4
scalar RSUExampleScenario.node[13].veinsmobility totalTime 111.6
scalar RSUExampleScenario.node[13].veinsmobility stopTime 120
scalar RSUExampleScenario.node[13].veinsmobility minSpeed 0
scalar RSUExampleScenario.node[13].veinsmobility maxSpeed 9.439033897999
scalar RSUExampleScenario.node[13].veinsmobility totalDistance 213.89597128865
scalar RSUExampleScenario.node[13].veinsmobility totalCO2Emission 144.52089745475
scalar RSUExampleScenario.node[15].appl generatedWSMs 1
scalar RSUExampleScenario.node[15].appl receivedWSMs 117
scalar RSUExampleScenario.node[15].appl generatedBSMs 1094
scalar RSUExampleScenario.node[15].appl receivedBSMs 68155
scalar RSUExampleScenario.node[15].appl generatedWSAs 0
scalar RSUExampleScenario.node[15].appl receivedWSAs 0
scalar RSUExampleScenario.node[15].nic.phy80211p busyTime 0.068690530164622
scalar RSUExampleScenario.node[15].nic.mac1609_4 ReceivedUnicastPackets 0
scalar RSUExampleScenario.node[15].nic.mac1609_4 ReceivedBroadcasts 68272
scalar RSUExampleScenario.node[15].nic.mac1609_4 SentPackets 1095
scalar RSUExampleScenario.node[15].nic.mac1609_4 SentAcknowledgements 0
scalar RSUExampleScenario.node[15].nic.mac1609_4 RetriesExceeded 0
scalar RSUExampleScenario.node[15].nic.mac1609_4 SNIRLostPackets 3835
scalar RSUExampleScenario.node[15].nic.mac1609_4 RXTXLostPackets 0
scalar RSUExampleScenario.node[15].nic.mac1609_4 TotalLostPackets 3835
scalar RSUExampleScenario.node[15].nic.mac1609_4 DroppedPacketsInMac 0
scalar RSUExampleScenario.node[15].nic.mac1609_4 TooLittleTime 0
scalar RSUExampleScenario.node[15].nic.mac1609_4 TimesIntoBackoff 1095
scalar RSUExampleScenario.node[15].nic.mac1609_4 SlotsBackoff 1623
scalar RSUExampleScenario.node[15].nic.mac1609_4 NumInternalContention 0
scalar RSUExampleScenario.node[15].nic.mac1609_4 totalBusyTime 7.568751109141
scalar RSUExampleScenario.node[15].nic.mac1609_4 retriesExceeded:count 0
attr source org_car2x_veins_modules_mac_sigRetriesExceeded
scalar RSUExampleScenario.node[15].nic.mac1609_4 sentAcks:count 0
attr source org_car2x_veins_modules_mac_sigSentAck
scalar RSUExampleScenario.node[15].nic.mac1609_4 sentPackets:count 1095
attr source org_car2x_veins_modules_mac_sigSentPacket
scalar RSUExampleScenario.node[15].nic.mac1609_4 collisions:count 0
attr source org_car2x_veins_modules_mac_sigCollision
scalar RSUExampleScenario.node[15].nic.mac1609_4 channelBusy:timeavg 0.069184196610152
attr source org_car2x_veins_modules_mac_sigChannelBusy
scalar RSUExampleScenario.node[15].veinsmobility startTime 10.6
scalar RSUExampleScenario.node[15].veinsmobility totalTime 109.4
scalar RSUExampleScenario.node[15].veinsmobility stopTime 120
scalar RSUExampleScenario.node[15].veinsmobility minSpeed 0.011794406821651
scalar RSUExampleScenario.node[15].veinsmobility maxSpeed 7.241939211652
scalar RSUExampleScenario.node[15].veinsmobility totalDistance 651.63529580339
scalar RSUExampleScenario.node[15].veinsmobility totalCO2Emission 207.6815750457
scalar RSUExampleScenario.node[16].appl generatedWSMs 1
scalar RSUExampleScenario.node[16].appl receivedWSMs 118
scalar RSUExampleScenario.node[16].appl generatedBSMs 1077
scalar RSUExampleScenario.node[16].appl receivedBSMs 70847
scalar RSUExampleScenario.node[16].appl generatedWSAs 0
scalar RSUExampleScenario.node[16].appl receivedWSAs 0
scalar RSUExampleScenario.node[16].nic.phy80211p busyTime 0.069528542247071
scalar RSUExampleScenario.node[16].nic.mac1609_4 ReceivedUnicastPackets 0
scalar RSUExampleScenario.node[16].nic.mac1609_4 ReceivedBroadcasts 70965
scalar RSUExampleScenario.node[16].nic.mac1609_4 SentPackets 1078
scalar RSUExampleScenario.node[16].nic.mac1609_4 SentAcknowledgements 0
scalar RSUExampleScenario.node[16].nic.mac1609_4 RetriesExceeded 0
scalar RSUExampleScenario.node[16].nic.mac1609_4 SNIRLostPackets 887
scalar RSUExampleScenario.node[16].nic.mac1609_4 RXTXLostPackets 0
scalar RSUExampleScenario.node[16].nic.mac1609_4 TotalLostPackets 887
scalar RSUExampleScenario.node[16].nic.mac1609_4 DroppedPacketsInMac 0
scalar RSUExampleScenario.node[16].nic.mac1609_4 TooLittleTime 0
scalar RSUExampleScenario.node[16].nic.mac1609_4 TimesIntoBackoff 1078
scalar RSUExampleScenario.node[16].nic.mac1609_4 SlotsBackoff 1576
scalar RSUExampleScenario.node[16].nic.mac1609_4 NumInternalContention 0
scalar RSUExampleScenario.node[16].nic.mac1609_4 totalBusyTime 7.540318
scalar RSUExampleScenario.node[16].nic.mac1609_4 retriesExceeded:count 0
attr source org_car2x_veins_modules_mac_sigRetriesExceeded
scalar RSUExampleScenario.node[16].nic.mac1609_4 sentAcks:count 0
attr source org_car2x_veins_modules_mac_sigSentAck
scalar RSUExampleScenario.node[16].nic.mac1609_4 sentPackets:count 1078
attr source org_car2x_veins_modules_mac_sigSentPacket
scalar RSUExampleScenario.node[16].nic.mac1609_4 collisions:count 0
attr source org_car2x_veins_modules_mac_sigCollision
scalar RSUExampleScenario.node[16].nic.mac1609_4 channelBusy:timeavg 0.070012237697396
attr source org_car2x_veins_modules_mac_sigChannelBusy
scalar RSUExampleScenario.node[16].veinsmobility startTime 12.3
scalar RSUExampleScenario.node[16].veinsmobility totalTime 107.7
scalar RSUExampleScenario.node[16].veinsmobility stopTime 120
scalar RSUExampleScenario.node[16].veinsmobility minSpeed 0
scalar RSUExampleScenario.node[16].veinsmobility maxSpeed 10.409170515073
scalar RSUExampleScenario.node[16].veinsmobility totalDistance 206.39496194338
scalar RSUExampleScenario.node[16].veinsmobility totalCO2Emission 142.87251586203
scalar RSUExampleScenario.node[17].appl generatedWSMs 1
scalar RSUExampleScenario.node[17].appl receivedWSMs 117
scalar RSUExampleScenario.node[17].appl generatedBSMs 1074
scalar RSUExampleScenario.node[17].appl receivedBSMs 68190
scalar RSUExampleScenario.node[17].appl generatedWSAs 0
scalar RSUExampleScenario.node[17].appl receivedWSAs 0
scalar RSUExampleScenario.node[17].nic.phy80211p busyTime 0.069676275605303
scalar RSUExampleScenario.node[17].nic.mac1609_4 ReceivedUnicastPackets 0
scalar RSUExampleScenario.node[17].nic.mac1609_4 ReceivedBroadcasts 68307
scalar RSUExampleScenario.node[17].nic.mac1609_4 SentPackets 1075
scalar RSUExampleScenario.node[17].nic.mac1609_4 SentAcknowledgements 0
scalar RSUExampleScenario.node[17].nic.mac1609_4 RetriesExceeded 0
scalar RSUExampleScenario.node[17].nic.mac1609_4 SNIRLostPackets 3497
scalar RSUExampleScenario.node[17].nic.mac1609_4 RXTXLostPackets 0
scalar RSUExampleScenario.node[17].nic.mac1609_4 TotalLostPackets 3497
scalar RSUExampleScenario.node[17].nic.mac1609_4 DroppedPacketsInMac 0
scalar RSUExampleScenario.node[17].nic.mac1609_4 TooLittleTime 0
scalar RSUExampleScenario.node[17].nic.mac1609_4 TimesIntoBackoff 1075
scalar RSUExampleScenario.node[17].nic.mac1609_4 SlotsBackoff 1618
scalar RSUExampleScenario.node[17].nic.mac1609_4 NumInternalContention 0
scalar RSUExampleScenario.node[17].nic.mac1609_4 totalBusyTime 7.535011
scalar RSUExampleScenario.node[17].nic.mac1609_4 retriesExceeded:count 0
attr source org_car2x_veins_modules_mac_sigRetriesExceeded
scalar RSUExampleScenario.node[17].nic.mac1609_4 sentAcks:count 0
attr source org_car2x_veins_modules_mac_sigSentAck
scalar RSUExampleScenario.node[17].nic.mac1609_4 sentPackets:count 1075
attr source org_car2x_veins_modules_mac_sigSentPacket
scalar RSUExampleScenario.node[17].nic.mac1609_4 collisions:count 0
attr source org_car2x_veins_modules_mac_sigCollision
scalar RSUExampleScenario.node[17].nic.mac1609_4 channelBusy:timeavg 0.070158389199343
attr source org_car2x_veins_modules_mac_sigChannelBusy
scalar RSUExampleScenario.node[17].veinsmobility startTime 12.6
scalar RSUExampleScenario.node[17].veinsmobility totalTime 107.4
scalar RSUExampleScenario.node[17].veinsmobility stopTime 120
scalar RSUExampleScenario.node[17].veinsmobility minSpeed 0.027661573484066
scalar RSUExampleScenario.node[17].veinsmobility maxSpeed 7.4712427519619
scalar RSUExampleScenario.node[17].veinsmobility totalDistance 636.61870945071
scalar RSUExampleScenario.node[17].veinsmobility totalCO2Emission 209.06553727845
scalar RSUExampleScenario.node[19].appl generatedWSMs 1
scalar RSUExampleScenario.node[19].appl receivedWSMs 118
scalar RSUExampleScenario.node[19].appl generatedBSMs 1052
scalar RSUExampleScenario.node[19].appl receivedBSMs 68082
scalar RSUExampleScenario.node[19].appl generatedWSAs 0
scalar RSUExampleScenario.node[19].appl receivedWSAs 0
scalar RSUExampleScenario.node[19].nic.phy80211p busyTime 0.070615133079937
scalar RSUExampleScenario.node[19].nic.mac1609_4 ReceivedUnicastPackets 0
scalar RSUExampleScenario.node[19].nic.mac1609_4 ReceivedBroadcasts 68200
scalar RSUExampleScenario.node[19].nic.mac1609_4 SentPackets 1053
scalar RSUExampleScenario.node[19].nic.mac1609_4 SentAcknowledgements 0
scalar RSUExampleScenario.node[19].nic.mac1609_4 RetriesExceeded 0
scalar RSUExampleScenario.node[19].nic.mac1609_4 SNIRLostPackets 3081
scalar RSUExampleScenario.node[19].nic.mac1609_4 RXTXLostPackets 143
scalar RSUExampleScenario.node[19].nic.mac1609_4 TotalLostPackets 3224
scalar RSUExampleScenario.node[19].nic.mac1609_4 DroppedPacketsInMac 0
scalar RSUExampleScenario.node[19].nic.mac1609_4 TooLittleTime 0
scalar RSUExampleScenario.node[19].nic.mac1609_4 TimesIntoBackoff 1333
scalar RSUExampleScenario.node[19].nic.mac1609_4 SlotsBackoff 2054
scalar RSUExampleScenario.node[19].nic.mac1609_4 NumInternalContention 0
scalar RSUExampleScenario.node[19].nic.mac1609_4 totalBusyTime 7.493181
scalar RSUExampleScenario.node[19].nic.mac1609_4 retriesExceeded:count 0
attr source org_car2x_veins_modules_mac_sigRetriesExceeded
scalar RSUExampleScenario.node[19].nic.mac1609_4 sentAcks:count 0
attr source org_car2x_veins_modules_mac_sigSentAck
scalar RSUExampleScenario.node[19].nic.mac1609_4 sentPackets:count 1053
attr source org_car2x_veins_modules_mac_sigSentPacket
scalar RSUExampleScenario.node[19].nic.mac1609_4 collisions:count 0
attr source org_car2x_veins_modules_mac_sigCollision
scalar RSUExampleScenario.node[19].nic.mac1609_4 channelBusy:timeavg 0.071227956273853
attr source org_car2x_veins_modules_mac_sigChannelBusy
scalar RSUExampleScenario.node[19].veinsmobility startTime 14.8
scalar RSUExampleScenario.node[19].veinsmobility totalTime 105.2
scalar RSUExampleScenario.node[19].veinsmobility stopTime 120
scalar RSUExampleScenario.node[19].veinsmobility minSpeed 0.052095814747051
scalar RSUExampleScenario.node[19].veinsmobility maxSpeed 7.582380690186
scalar RSUExampleScenario.node[19].veinsmobility totalDistance 621.56678485715
scalar RSUExampleScenario.node[19].veinsmobility totalCO2Emission 211.64743657033
scalar RSUExampleScenario.node[20].appl generatedWSMs 1
scalar RSUExampleScenario.node[20].appl receivedWSMs 118
scalar RSUExampleScenario.node[20].appl generatedBSMs 1038
scalar RSUExampleScenario.node[20].appl receivedBSMs 70155
scalar RSUExampleScenario.node[20].appl generatedWSAs 0
scalar RSUExampleScenario.node[20].appl receivedWSAs 0
scalar RSUExampleScenario.node[20].nic.phy80211p busyTime 0.071445549133038
scalar RSUExampleScenario.node[20].nic.mac1609_4 ReceivedUnicastPackets 0
scalar RSUExampleScenario.node[20].nic.mac1609_4 ReceivedBroadcasts 70273
scalar RSUExampleScenario.node[20].nic.mac1609_4 SentPackets 1039
scalar RSUExampleScenario.node[20].nic.mac1609_4 SentAcknowledgements 0
scalar RSUExampleScenario.node[20].nic.mac1609_4 RetriesExceeded 0
scalar RSUExampleScenario.node[20].nic.mac1609_4 SNIRLostPackets 885
scalar RSUExampleScenario.node[20].nic.mac1609_4 RXTXLostPackets 0
scalar RSUExampleScenario.node[20].nic.mac1609_4 TotalLostPackets 885
scalar RSUExampleScenario.node[20].nic.mac1609_4 DroppedPacketsInMac 0
scalar RSUExampleScenario.node[20].nic.mac1609_4 TooLittleTime 0
scalar RSUExampleScenario.node[20].nic.mac1609_4 TimesIntoBackoff 1039
scalar RSUExampleScenario.node[20].nic.mac1609_4 SlotsBackoff 1556
scalar RSUExampleScenario.node[20].nic.mac1609_4 NumInternalContention 0
scalar RSUExampleScenario.node[20].nic.mac1609_4 totalBusyTime 7.464047
scalar RSUExampleScenario.node[20].nic.mac1609_4 retriesExceeded:count 0
attr source org_car2x_veins_modules_mac_sigRetriesExceeded
scalar RSUExampleScenario.node[20].nic.mac1609_4 sentAcks:count 0
attr source org_car2x_veins_modules_mac_sigSentAck
scalar RSUExampleScenario.node[20].nic.mac1609_4 sentPackets:count 1039
attr source org_car2x_veins_modules_mac_sigSentPacket
scalar RSUExampleScenario.node[20].nic.mac1609_4 collisions:count 0
attr source org_car2x_veins_modules_mac_sigCollision
scalar RSUExampleScenario.node[20].nic.mac1609_4 channelBusy:timeavg 0.071907967244791
attr source org_car2x_veins_modules_mac_sigChannelBusy
scalar RSUExampleScenario.node[20].veinsmobility startTime 16.2
scalar RSUExampleScenario.node[20].veinsmobility totalTime 103.8
scalar RSUExampleScenario.node[20].veinsmobility stopTime 120
scalar RSUExampleScenario.node[20].veinsmobility minSpeed 0
scalar RSUExampleScenario.node[20].veinsmobility maxSpeed 11.053378526708
scalar RSUExampleScenario.node[20].veinsmobility totalDistance 198.89395238056
scalar RSUExampleScenario.node[20].veinsmobility totalCO2Emission 136.5332990537
scalar RSUExampleScenario.node[21].appl generatedWSMs 1
scalar RSUExampleScenario.node[21].appl receivedWSMs 118
scalar RSUExampleScenario.node[21].appl generatedBSMs 1032
scalar RSUExampleScenario.node[21].appl receivedBSMs 67887
scalar RSUExampleScenario.node[21].appl generatedWSAs 0
scalar RSUExampleScenario.node[21].appl receivedWSAs 0
scalar RSUExampleScenario.node[21].nic.phy80211p busyTime 0.07174000000009
scalar RSUExampleScenario.node[21].nic.mac1609_4 ReceivedUnicastPackets 0
scalar RSUExampleScenario.node[21].nic.mac1609_4 ReceivedBroadcasts 68005
scalar RSUExampleScenario.node[21].nic.mac1609_4 SentPackets 1033
scalar RSUExampleScenario.node[21].nic.mac1609_4 SentAcknowledgements 0
scalar RSUExampleScenario.node[21].nic.mac1609_4 RetriesExceeded 0
scalar RSUExampleScenario.node[21].nic.mac1609_4 SNIRLostPackets 3033
scalar RSUExampleScenario.node[21].nic.mac1609_4 RXTXLostPackets 0
scalar RSUExampleScenario.node[21].nic.mac1609_4 TotalLostPackets 3033
scalar RSUExampleScenario.node[21].nic.mac1609_4 DroppedPacketsInMac 0
scalar RSUExampleScenario.node[21].nic.mac1609_4 TooLittleTime 0
scalar RSUExampleScenario.node[21].nic.mac1609_4 TimesIntoBackoff 1033
scalar RSUExampleScenario.node[21].nic.mac1609_4 SlotsBackoff 1582
scalar RSUExampleScenario.node[21].nic.mac1609_4 NumInternalContention 0
scalar RSUExampleScenario.node[21].nic.mac1609_4 totalBusyTime 7.450937
scalar RSUExampleScenario.node[21].nic.mac1609_4 retriesExceeded:count 0
attr source org_car2x_veins_modules_mac_sigRetriesExceeded
scalar RSUExampleScenario.node[21].nic.mac1609_4 sentAcks:count 0
attr source org_car2x_veins_modules_mac_sigSentAck
scalar RSUExampleScenario.node[21].nic.mac1609_4 sentPackets:count 1033
attr source org_car2x_veins_modules_mac_sigSentPacket
scalar RSUExampleScenario.node[21].nic.mac1609_4 collisions:count 0
attr source org_car2x_veins_modules_mac_sigCollision
scalar RSUExampleScenario.node[21].nic.mac1609_4 channelBusy:timeavg 0.072199001938074
attr source org_car2x_veins_modules_mac_sigChannelBusy
scalar RSUExampleScenario.node[21].veinsmobility startTime 16.8
scalar RSUExampleScenario.node[21].veinsmobility totalTime 103.2
scalar RSUExampleScenario.node[21].veinsmobility stopTime 120
scalar RSUExampleScenario.node[21].veinsmobility minSpeed 0.088450398498318
scalar RSUExampleScenario.node[21].veinsmobility maxSpeed 7.5663286563983
scalar RSUExampleScenario.node[21].veinsmobility totalDistance 606.56311787204
scalar RSUExampleScenario.node[21].veinsmobility totalCO2Emission 206.11101812459
scalar RSUExampleScenario.node[23].appl generatedWSMs 1
scalar RSUExampleScenario.node[23].appl receivedWSMs 118
scalar RSUExampleScenario.node[23].appl generatedBSMs 1013
scalar RSUExampleScenario.node[23].appl receivedBSMs 67634
scalar RSUExampleScenario.node[23].appl generatedWSAs 0
scalar RSUExampleScenario.node[23].appl receivedWSAs 0
scalar RSUExampleScenario.node[23].nic.phy80211p busyTime 0.072670799605224
scalar RSUExampleScenario.node[23].nic.mac1609_4 ReceivedUnicastPackets 0
scalar RSUExampleScenario.node[23].nic.mac1609_4 ReceivedBroadcasts 67752
scalar RSUExampleScenario.node[23].nic.mac1609_4 SentPackets 1014
scalar RSUExampleScenario.node[23].nic.mac1609_4 SentAcknowledgements 0
scalar RSUExampleScenario.node[23].nic.mac1609_4 RetriesExceeded 0
scalar RSUExampleScenario.node[23].nic.mac1609_4 SNIRLostPackets 2882
scalar RSUExampleScenario.node[23].nic.mac1609_4 RXTXLostPackets 0
scalar RSUExampleScenario.node[23].nic.mac1609_4 TotalLostPackets 2882
scalar RSUExampleScenario.node[23].nic.mac1609_4 DroppedPacketsInMac 0
scalar RSUExampleScenario.node[23].nic.mac1609_4 TooLittleTime 0
scalar RSUExampleScenario.node[23].nic.mac1609_4 TimesIntoBackoff 1015
scalar RSUExampleScenario.node[23].nic.mac1609_4 SlotsBackoff 1543
scalar RSUExampleScenario.node[23].nic.mac1609_4 NumInternalContention 0
scalar RSUExampleScenario.node[23].nic.mac1609_4 totalBusyTime 7.406926
scalar RSUExampleScenario.node[23].nic.mac1609_4 retriesExceeded:count 0
attr source org_car2x_veins_modules_mac_sigRetriesExceeded
scalar RSUExampleScenario.node[23].nic.mac1609_4 sentAcks:count 0
attr source org_car2x_veins_modules_mac_sigSentAck
scalar RSUExampleScenario.node[23].nic.mac1609_4 sentPackets:count 1014
attr source org_car2x_veins_modules_mac_sigSentPacket
scalar RSUExampleScenario.node[23].nic.mac1609_4 collisions:count 0
attr source org_car2x_veins_modules_mac_sigCollision
scalar RSUExampleScenario.node[23].nic.mac1609_4 channelBusy:timeavg 0.073118716683209
attr source org_car2x_veins_modules_mac_sigChannelBusy
scalar RSUExampleScenario.node[23].veinsmobility startTime 18.7
scalar RSUExampleScenario.node[23].veinsmobility totalTime 101.3
scalar RSUExampleScenario.node[23].veinsmobility stopTime 120
scalar RSUExampleScenario.node[23].veinsmobility minSpeed 0.13538388814012
scalar RSUExampleScenario.node[23].veinsmobility maxSpeed 7.6801506362953
scalar RSUExampleScenario.node[23].veinsmobility totalDistance 591.57875686867
scalar RSUExampleScenario.node[23].veinsmobility totalCO2Emission 202.04307457119
scalar RSUExampleScenario.node[24].appl generatedWSMs 1
scalar RSUExampleScenario.node[24].appl receivedWSMs 118
scalar RSUExampleScenario.node[24].appl generatedBSMs 1000
scalar RSUExampleScenario.node[24].appl receivedBSMs 69320
scalar RSUExampleScenario.node[24].appl generatedWSAs 0
scalar RSUExampleScenario.node[24].appl receivedWSAs 0
scalar RSUExampleScenario.node[24].nic.phy80211p busyTime 0.073304560000091
scalar RSUExampleScenario.node[24].nic.mac1609_4 ReceivedUnicastPackets 0
scalar RSUExampleScenario.node[24].nic.mac1609_4 ReceivedBroadcasts 69438
scalar RSUExampleScenario.node[24].nic.mac1609_4 SentPackets 1001
scalar RSUExampleScenario.node[24].nic.mac1609_4 SentAcknowledgements 0
scalar RSUExampleScenario.node[24].nic.mac1609_4 RetriesExceeded 0
scalar RSUExampleScenario.node[24].nic.mac1609_4 SNIRLostPackets 897
scalar RSUExampleScenario.node[24].nic.mac1609_4 RXTXLostPackets 0
scalar RSUExampleScenario.node[24].nic.mac1609_4 TotalLostPackets 897
scalar RSUExampleScenario.node[24].nic.mac1609_4 DroppedPacketsInMac 0
scalar RSUExampleScenario.node[24].nic.mac1609_4 TooLittleTime 0
scalar RSUExampleScenario.node[24].nic.mac1609_4 TimesIntoBackoff 1001
scalar RSUExampleScenario.node[24].nic.mac1609_4 SlotsBackoff 1472
scalar RSUExampleScenario.node[24].nic.mac1609_4 NumInternalContention 0
scalar RSUExampleScenario.node[24].nic.mac1609_4 totalBusyTime 7.374465
scalar RSUExampleScenario.node[24].nic.mac1609_4 retriesExceeded:count 0
attr source org_car2x_veins_modules_mac_sigRetriesExceeded
scalar RSUExampleScenario.node[24].nic.mac1609_4 sentAcks:count 0
attr source org_car2x_veins_modules_mac_sigSentAck
scalar RSUExampleScenario.node[24].nic.mac1609_4 sentPackets:count 1001
attr source org_car2x_veins_modules_mac_sigSentPacket
scalar RSUExampleScenario.node[24].nic.mac1609_4 collisions:count 0
attr source org_car2x_veins_modules_mac_sigCollision
scalar RSUExampleScenario.node[24].nic.mac1609_4 channelBusy:timeavg 0.07374465000009
attr source org_car2x_veins_modules_mac_sigChannelBusy
scalar RSUExampleScenario.node[24].veinsmobility startTime 20
scalar RSUExampleScenario.node[24].veinsmobility totalTime 100
scalar RSUExampleScenario.node[24].veinsmobility stopTime 120
scalar RSUExampleScenario.node[24].veinsmobility minSpeed 0
scalar RSUExampleScenario.node[24].veinsmobility maxSpeed 10.046550686563
scalar RSUExampleScenario.node[24].veinsmobility totalDistance 223.59698014695
scalar RSUExampleScenario.node[24].veinsmobility totalCO2Emission 138.13898961631
scalar RSUExampleScenario.node[25].appl generatedWSMs 1
scalar RSUExampleScenario.node[25].appl receivedWSMs 118
scalar RSUExampleScenario.node[25].appl generatedBSMs 993
scalar RSUExampleScenario.node[25].appl receivedBSMs 67359
scalar RSUExampleScenario.node[25].appl generatedWSAs 0
scalar RSUExampleScenario.node[25].appl receivedWSAs 0
scalar RSUExampleScenario.node[25].nic.phy80211p busyTime 0.073625458207543
scalar RSUExampleScenario.node[25].nic.mac1609_4 ReceivedUnicastPackets 0
scalar RSUExampleScenario.node[25].nic.mac1609_4 ReceivedBroadcasts 67477
scalar RSUExampleScenario.node[25].nic.mac1609_4 SentPackets 994
scalar RSUExampleScenario.node[25].nic.mac1609_4 SentAcknowledgements 0
scalar RSUExampleScenario.node[25].nic.mac1609_4 RetriesExceeded 0
scalar RSUExampleScenario.node[25].nic.mac1609_4 SNIRLostPackets 2671
scalar RSUExampleScenario.node[25].nic.mac1609_4 RXTXLostPackets 19
scalar RSUExampleScenario.node[25].nic.mac1609_4 TotalLostPackets 2690
scalar RSUExampleScenario.node[25].nic.mac1609_4 DroppedPacketsInMac 0
scalar RSUExampleScenario.node[25].nic.mac1609_4 TooLittleTime 0
scalar RSUExampleScenario.node[25].nic.mac1609_4 TimesIntoBackoff 994
scalar RSUExampleScenario.node[25].nic.mac1609_4 SlotsBackoff 1427
scalar RSUExampleScenario.node[25].nic.mac1609_4 NumInternalContention 0
scalar RSUExampleScenario.node[25].nic.mac1609_4 totalBusyTime 7.356258
scalar RSUExampleScenario.node[25].nic.mac1609_4 retriesExceeded:count 0
attr source org_car2x_veins_modules_mac_sigRetriesExceeded
scalar RSUExampleScenario.node[25].nic.mac1609_4 sentAcks:count 0
attr source org_car2x_veins_modules_mac_sigSentAck
scalar RSUExampleScenario.node[25].nic.mac1609_4 sentPackets:count 994
attr source org_car2x_veins_modules_mac_sigSentPacket
scalar RSUExampleScenario.node[25].nic.mac1609_4 collisions:count 0
attr source org_car2x_veins_modules_mac_sigCollision
scalar RSUExampleScenario.node[25].nic.mac1609_4 channelBusy:timeavg 0.074081148036344
attr source org_car2x_veins_modules_mac_sigChannelBusy
scalar RSUExampleScenario.node[25].veinsmobility startTime 20.7
scalar RSUExampleScenario.node[25].veinsmobility totalTime 99.3
scalar RSUExampleScenario.node[25].veinsmobility stopTime 120
scalar RSUExampleScenario.node[25].veinsmobility minSpeed 0.19561245064518
scalar RSUExampleScenario.node[25].veinsmobility maxSpeed 7.7190729119076
scalar RSUExampleScenario.node[25].veinsmobility totalDistance 576.60921827374
[...]
scalar RSUExampleScenario.node[118].nic.mac1609_4 ReceivedUnicastPackets 0
scalar RSUExampleScenario.node[118].nic.mac1609_4 ReceivedBroadcasts 9265
scalar RSUExampleScenario.node[118].nic.mac1609_4 SentPackets 93
scalar RSUExampleScenario.node[118].nic.mac1609_4 SentAcknowledgements 0
scalar RSUExampleScenario.node[118].nic.mac1609_4 RetriesExceeded 0
scalar RSUExampleScenario.node[118].nic.mac1609_4 SNIRLostPackets 950
scalar RSUExampleScenario.node[118].nic.mac1609_4 RXTXLostPackets 0
scalar RSUExampleScenario.node[118].nic.mac1609_4 TotalLostPackets 950
scalar RSUExampleScenario.node[118].nic.mac1609_4 DroppedPacketsInMac 0
scalar RSUExampleScenario.node[118].nic.mac1609_4 TooLittleTime 0
scalar RSUExampleScenario.node[118].nic.mac1609_4 TimesIntoBackoff 93
scalar RSUExampleScenario.node[118].nic.mac1609_4 SlotsBackoff 133
scalar RSUExampleScenario.node[118].nic.mac1609_4 NumInternalContention 0
scalar RSUExampleScenario.node[118].nic.mac1609_4 totalBusyTime 1.050165
scalar RSUExampleScenario.node[118].nic.mac1609_4 retriesExceeded:count 0
attr source org_car2x_veins_modules_mac_sigRetriesExceeded
scalar RSUExampleScenario.node[118].nic.mac1609_4 sentAcks:count 0
attr source org_car2x_veins_modules_mac_sigSentAck
scalar RSUExampleScenario.node[118].nic.mac1609_4 sentPackets:count 93
attr source org_car2x_veins_modules_mac_sigSentPacket
scalar RSUExampleScenario.node[118].nic.mac1609_4 collisions:count 0
attr source org_car2x_veins_modules_mac_sigCollision
scalar RSUExampleScenario.node[118].nic.mac1609_4 channelBusy:timeavg 0.11414836956522
attr source org_car2x_veins_modules_mac_sigChannelBusy
scalar RSUExampleScenario.node[118].veinsmobility startTime 110.8
scalar RSUExampleScenario.node[118].veinsmobility totalTime 9.2
scalar RSUExampleScenario.node[118].veinsmobility stopTime 120
scalar RSUExampleScenario.node[118].veinsmobility minSpeed 1.5996420963674
scalar RSUExampleScenario.node[118].veinsmobility maxSpeed 5.819291957312
scalar RSUExampleScenario.node[118].veinsmobility totalDistance 39.632946603835
scalar RSUExampleScenario.node[118].veinsmobility totalCO2Emission 16.259852595274
scalar RSUExampleScenario.node[119].appl generatedWSMs 1
scalar RSUExampleScenario.node[119].appl receivedWSMs 7
scalar RSUExampleScenario.node[119].appl generatedBSMs 91
scalar RSUExampleScenario.node[119].appl receivedBSMs 9174
scalar RSUExampleScenario.node[119].appl generatedWSAs 0
scalar RSUExampleScenario.node[119].appl receivedWSAs 0
scalar RSUExampleScenario.node[119].nic.phy80211p busyTime 0.1155956043956
scalar RSUExampleScenario.node[119].nic.mac1609_4 ReceivedUnicastPackets 0
scalar RSUExampleScenario.node[119].nic.mac1609_4 ReceivedBroadcasts 9181
scalar RSUExampleScenario.node[119].nic.mac1609_4 SentPackets 92
scalar RSUExampleScenario.node[119].nic.mac1609_4 SentAcknowledgements 0
scalar RSUExampleScenario.node[119].nic.mac1609_4 RetriesExceeded 0
scalar RSUExampleScenario.node[119].nic.mac1609_4 SNIRLostPackets 925
scalar RSUExampleScenario.node[119].nic.mac1609_4 RXTXLostPackets 0
scalar RSUExampleScenario.node[119].nic.mac1609_4 TotalLostPackets 925
scalar RSUExampleScenario.node[119].nic.mac1609_4 DroppedPacketsInMac 0
scalar RSUExampleScenario.node[119].nic.mac1609_4 TooLittleTime 0
scalar RSUExampleScenario.node[119].nic.mac1609_4 TimesIntoBackoff 92
scalar RSUExampleScenario.node[119].nic.mac1609_4 SlotsBackoff 143
scalar RSUExampleScenario.node[119].nic.mac1609_4 NumInternalContention 0
scalar RSUExampleScenario.node[119].nic.mac1609_4 totalBusyTime 1.038932
scalar RSUExampleScenario.node[119].nic.mac1609_4 retriesExceeded:count 0
attr source org_car2x_veins_modules_mac_sigRetriesExceeded
scalar RSUExampleScenario.node[119].nic.mac1609_4 sentAcks:count 0
attr source org_car2x_veins_modules_mac_sigSentAck
scalar RSUExampleScenario.node[119].nic.mac1609_4 sentPackets:count 92
attr source org_car2x_veins_modules_mac_sigSentPacket
scalar RSUExampleScenario.node[119].nic.mac1609_4 collisions:count 0
attr source org_car2x_veins_modules_mac_sigCollision
scalar RSUExampleScenario.node[119].nic.mac1609_4 channelBusy:timeavg 0.11416835164835
attr source org_car2x_veins_modules_mac_sigChannelBusy
scalar RSUExampleScenario.node[119].veinsmobility startTime 110.9
scalar RSUExampleScenario.node[119].veinsmobility totalTime 9.1
scalar RSUExampleScenario.node[119].veinsmobility stopTime 120
scalar RSUExampleScenario.node[119].veinsmobility minSpeed 1.993972114991
scalar RSUExampleScenario.node[119].veinsmobility maxSpeed 3.4525607634947
scalar RSUExampleScenario.node[119].veinsmobility totalDistance 26.472409876721
scalar RSUExampleScenario.node[119].veinsmobility totalCO2Emission 12.965965839232
scalar RSUExampleScenario.node[120].appl generatedWSMs 1
scalar RSUExampleScenario.node[120].appl receivedWSMs 5
scalar RSUExampleScenario.node[120].appl generatedBSMs 67
scalar RSUExampleScenario.node[120].appl receivedBSMs 6725
scalar RSUExampleScenario.node[120].appl generatedWSAs 0
scalar RSUExampleScenario.node[120].appl receivedWSAs 0
scalar RSUExampleScenario.node[120].nic.phy80211p busyTime 0.1160943283582
scalar RSUExampleScenario.node[120].nic.mac1609_4 ReceivedUnicastPackets 0
scalar RSUExampleScenario.node[120].nic.mac1609_4 ReceivedBroadcasts 6730
scalar RSUExampleScenario.node[120].nic.mac1609_4 SentPackets 68
scalar RSUExampleScenario.node[120].nic.mac1609_4 SentAcknowledgements 0
scalar RSUExampleScenario.node[120].nic.mac1609_4 RetriesExceeded 0
scalar RSUExampleScenario.node[120].nic.mac1609_4 SNIRLostPackets 743
scalar RSUExampleScenario.node[120].nic.mac1609_4 RXTXLostPackets 0
scalar RSUExampleScenario.node[120].nic.mac1609_4 TotalLostPackets 743
scalar RSUExampleScenario.node[120].nic.mac1609_4 DroppedPacketsInMac 0
scalar RSUExampleScenario.node[120].nic.mac1609_4 TooLittleTime 0
scalar RSUExampleScenario.node[120].nic.mac1609_4 TimesIntoBackoff 68
scalar RSUExampleScenario.node[120].nic.mac1609_4 SlotsBackoff 102
scalar RSUExampleScenario.node[120].nic.mac1609_4 NumInternalContention 0
scalar RSUExampleScenario.node[120].nic.mac1609_4 totalBusyTime 0.76794
scalar RSUExampleScenario.node[120].nic.mac1609_4 retriesExceeded:count 0
attr source org_car2x_veins_modules_mac_sigRetriesExceeded
scalar RSUExampleScenario.node[120].nic.mac1609_4 sentAcks:count 0
attr source org_car2x_veins_modules_mac_sigSentAck
scalar RSUExampleScenario.node[120].nic.mac1609_4 sentPackets:count 68
attr source org_car2x_veins_modules_mac_sigSentPacket
scalar RSUExampleScenario.node[120].nic.mac1609_4 collisions:count 0
attr source org_car2x_veins_modules_mac_sigCollision
scalar RSUExampleScenario.node[120].nic.mac1609_4 channelBusy:timeavg 0.11461791044776
attr source org_car2x_veins_modules_mac_sigChannelBusy
scalar RSUExampleScenario.node[120].veinsmobility startTime 113.3
scalar RSUExampleScenario.node[120].veinsmobility totalTime 6.7
scalar RSUExampleScenario.node[120].veinsmobility stopTime 120
scalar RSUExampleScenario.node[120].veinsmobility minSpeed 1.1733176816328
scalar RSUExampleScenario.node[120].veinsmobility maxSpeed 2.9895377126501
scalar RSUExampleScenario.node[120].veinsmobility totalDistance 17.274538052417
scalar RSUExampleScenario.node[120].veinsmobility totalCO2Emission 9.5527746273999
scalar RSUExampleScenario.node[121].appl generatedWSMs 1
scalar RSUExampleScenario.node[121].appl receivedWSMs 5
scalar RSUExampleScenario.node[121].appl generatedBSMs 64
scalar RSUExampleScenario.node[121].appl receivedBSMs 6496
scalar RSUExampleScenario.node[121].appl generatedWSAs 0
scalar RSUExampleScenario.node[121].appl receivedWSAs 0
scalar RSUExampleScenario.node[121].nic.phy80211p busyTime 0.11617374999999
scalar RSUExampleScenario.node[121].nic.mac1609_4 ReceivedUnicastPackets 0
scalar RSUExampleScenario.node[121].nic.mac1609_4 ReceivedBroadcasts 6501
scalar RSUExampleScenario.node[121].nic.mac1609_4 SentPackets 65
scalar RSUExampleScenario.node[121].nic.mac1609_4 SentAcknowledgements 0
scalar RSUExampleScenario.node[121].nic.mac1609_4 RetriesExceeded 0
scalar RSUExampleScenario.node[121].nic.mac1609_4 SNIRLostPackets 642
scalar RSUExampleScenario.node[121].nic.mac1609_4 RXTXLostPackets 0
scalar RSUExampleScenario.node[121].nic.mac1609_4 TotalLostPackets 642
scalar RSUExampleScenario.node[121].nic.mac1609_4 DroppedPacketsInMac 0
scalar RSUExampleScenario.node[121].nic.mac1609_4 TooLittleTime 0
scalar RSUExampleScenario.node[121].nic.mac1609_4 TimesIntoBackoff 66
scalar RSUExampleScenario.node[121].nic.mac1609_4 SlotsBackoff 102
scalar RSUExampleScenario.node[121].nic.mac1609_4 NumInternalContention 0
scalar RSUExampleScenario.node[121].nic.mac1609_4 totalBusyTime 0.734241
scalar RSUExampleScenario.node[121].nic.mac1609_4 retriesExceeded:count 0
attr source org_car2x_veins_modules_mac_sigRetriesExceeded
scalar RSUExampleScenario.node[121].nic.mac1609_4 sentAcks:count 0
attr source org_car2x_veins_modules_mac_sigSentAck
scalar RSUExampleScenario.node[121].nic.mac1609_4 sentPackets:count 65
attr source org_car2x_veins_modules_mac_sigSentPacket
scalar RSUExampleScenario.node[121].nic.mac1609_4 collisions:count 0
attr source org_car2x_veins_modules_mac_sigCollision
scalar RSUExampleScenario.node[121].nic.mac1609_4 channelBusy:timeavg 0.11472515624999
attr source org_car2x_veins_modules_mac_sigChannelBusy
scalar RSUExampleScenario.node[121].veinsmobility startTime 113.6
scalar RSUExampleScenario.node[121].veinsmobility totalTime 6.4
scalar RSUExampleScenario.node[121].veinsmobility stopTime 120
scalar RSUExampleScenario.node[121].veinsmobility minSpeed 1.3432125699407
scalar RSUExampleScenario.node[121].veinsmobility maxSpeed 5.4221970776091
scalar RSUExampleScenario.node[121].veinsmobility totalDistance 27.981846393357
scalar RSUExampleScenario.node[121].veinsmobility totalCO2Emission 11.8959270893
scalar RSUExampleScenario.node[122].appl generatedWSMs 1
scalar RSUExampleScenario.node[122].appl receivedWSMs 5
scalar RSUExampleScenario.node[122].appl generatedBSMs 63
scalar RSUExampleScenario.node[122].appl receivedBSMs 6367
scalar RSUExampleScenario.node[122].appl generatedWSAs 0
scalar RSUExampleScenario.node[122].appl receivedWSAs 0
scalar RSUExampleScenario.node[122].nic.phy80211p busyTime 0.11618539682539
scalar RSUExampleScenario.node[122].nic.mac1609_4 ReceivedUnicastPackets 0
scalar RSUExampleScenario.node[122].nic.mac1609_4 ReceivedBroadcasts 6372
scalar RSUExampleScenario.node[122].nic.mac1609_4 SentPackets 64
scalar RSUExampleScenario.node[122].nic.mac1609_4 SentAcknowledgements 0
scalar RSUExampleScenario.node[122].nic.mac1609_4 RetriesExceeded 0
scalar RSUExampleScenario.node[122].nic.mac1609_4 SNIRLostPackets 660
scalar RSUExampleScenario.node[122].nic.mac1609_4 RXTXLostPackets 0
scalar RSUExampleScenario.node[122].nic.mac1609_4 TotalLostPackets 660
scalar RSUExampleScenario.node[122].nic.mac1609_4 DroppedPacketsInMac 0
scalar RSUExampleScenario.node[122].nic.mac1609_4 TooLittleTime 0
scalar RSUExampleScenario.node[122].nic.mac1609_4 TimesIntoBackoff 64
scalar RSUExampleScenario.node[122].nic.mac1609_4 SlotsBackoff 86
scalar RSUExampleScenario.node[122].nic.mac1609_4 NumInternalContention 0
scalar RSUExampleScenario.node[122].nic.mac1609_4 totalBusyTime 0.722696
scalar RSUExampleScenario.node[122].nic.mac1609_4 retriesExceeded:count 0
attr source org_car2x_veins_modules_mac_sigRetriesExceeded
scalar RSUExampleScenario.node[122].nic.mac1609_4 sentAcks:count 0
attr source org_car2x_veins_modules_mac_sigSentAck
scalar RSUExampleScenario.node[122].nic.mac1609_4 sentPackets:count 64
attr source org_car2x_veins_modules_mac_sigSentPacket
scalar RSUExampleScenario.node[122].nic.mac1609_4 collisions:count 0
attr source org_car2x_veins_modules_mac_sigCollision
scalar RSUExampleScenario.node[122].nic.mac1609_4 channelBusy:timeavg 0.11471365079365
attr source org_car2x_veins_modules_mac_sigChannelBusy
scalar RSUExampleScenario.node[122].veinsmobility startTime 113.7
scalar RSUExampleScenario.node[122].veinsmobility totalTime 6.3
scalar RSUExampleScenario.node[122].veinsmobility stopTime 120
scalar RSUExampleScenario.node[122].veinsmobility minSpeed 1.5773379104363
scalar RSUExampleScenario.node[122].veinsmobility maxSpeed 2.991855876205
scalar RSUExampleScenario.node[122].veinsmobility totalDistance 16.313206860388
scalar RSUExampleScenario.node[122].veinsmobility totalCO2Emission 8.9514214754167
scalar RSUExampleScenario.node[123].appl generatedWSMs 0
scalar RSUExampleScenario.node[123].appl receivedWSMs 0
scalar RSUExampleScenario.node[123].appl generatedBSMs 35
scalar RSUExampleScenario.node[123].appl receivedBSMs 3511
scalar RSUExampleScenario.node[123].appl generatedWSAs 0
scalar RSUExampleScenario.node[123].appl receivedWSAs 0
scalar RSUExampleScenario.node[123].nic.phy80211p busyTime 0.11650971428571
scalar RSUExampleScenario.node[123].nic.mac1609_4 ReceivedUnicastPackets 0
scalar RSUExampleScenario.node[123].nic.mac1609_4 ReceivedBroadcasts 3511
scalar RSUExampleScenario.node[123].nic.mac1609_4 SentPackets 35
scalar RSUExampleScenario.node[123].nic.mac1609_4 SentAcknowledgements 0
scalar RSUExampleScenario.node[123].nic.mac1609_4 RetriesExceeded 0
scalar RSUExampleScenario.node[123].nic.mac1609_4 SNIRLostPackets 410
scalar RSUExampleScenario.node[123].nic.mac1609_4 RXTXLostPackets 0
scalar RSUExampleScenario.node[123].nic.mac1609_4 TotalLostPackets 410
scalar RSUExampleScenario.node[123].nic.mac1609_4 DroppedPacketsInMac 0
scalar RSUExampleScenario.node[123].nic.mac1609_4 TooLittleTime 0
scalar RSUExampleScenario.node[123].nic.mac1609_4 TimesIntoBackoff 35
scalar RSUExampleScenario.node[123].nic.mac1609_4 SlotsBackoff 42
scalar RSUExampleScenario.node[123].nic.mac1609_4 NumInternalContention 0
scalar RSUExampleScenario.node[123].nic.mac1609_4 totalBusyTime 0.402515
scalar RSUExampleScenario.node[123].nic.mac1609_4 retriesExceeded:count 0
attr source org_car2x_veins_modules_mac_sigRetriesExceeded
scalar RSUExampleScenario.node[123].nic.mac1609_4 sentAcks:count 0
attr source org_car2x_veins_modules_mac_sigSentAck
scalar RSUExampleScenario.node[123].nic.mac1609_4 sentPackets:count 35
attr source org_car2x_veins_modules_mac_sigSentPacket
scalar RSUExampleScenario.node[123].nic.mac1609_4 collisions:count 0
attr source org_car2x_veins_modules_mac_sigCollision
scalar RSUExampleScenario.node[123].nic.mac1609_4 channelBusy:timeavg 0.11500428571428
attr source org_car2x_veins_modules_mac_sigChannelBusy
scalar RSUExampleScenario.node[123].veinsmobility startTime 116.5
scalar RSUExampleScenario.node[123].veinsmobility totalTime 3.5
scalar RSUExampleScenario.node[123].veinsmobility stopTime 120
scalar RSUExampleScenario.node[123].veinsmobility minSpeed 0.94457730476975
scalar RSUExampleScenario.node[123].veinsmobility maxSpeed 2.595679296029
scalar RSUExampleScenario.node[123].veinsmobility totalDistance 7.2032175288665
scalar RSUExampleScenario.node[123].veinsmobility totalCO2Emission 5.066328709457
scalar RSUExampleScenario.node[124].appl generatedWSMs 0
scalar RSUExampleScenario.node[124].appl receivedWSMs 0
scalar RSUExampleScenario.node[124].appl generatedBSMs 32
scalar RSUExampleScenario.node[124].appl receivedBSMs 3256
scalar RSUExampleScenario.node[124].appl generatedWSAs 0
scalar RSUExampleScenario.node[124].appl receivedWSAs 0
scalar RSUExampleScenario.node[124].nic.phy80211p busyTime 0.11661
scalar RSUExampleScenario.node[124].nic.mac1609_4 ReceivedUnicastPackets 0
scalar RSUExampleScenario.node[124].nic.mac1609_4 ReceivedBroadcasts 3256
scalar RSUExampleScenario.node[124].nic.mac1609_4 SentPackets 32
scalar RSUExampleScenario.node[124].nic.mac1609_4 SentAcknowledgements 0
scalar RSUExampleScenario.node[124].nic.mac1609_4 RetriesExceeded 0
scalar RSUExampleScenario.node[124].nic.mac1609_4 SNIRLostPackets 332
scalar RSUExampleScenario.node[124].nic.mac1609_4 RXTXLostPackets 0
scalar RSUExampleScenario.node[124].nic.mac1609_4 TotalLostPackets 332
scalar RSUExampleScenario.node[124].nic.mac1609_4 DroppedPacketsInMac 0
scalar RSUExampleScenario.node[124].nic.mac1609_4 TooLittleTime 0
scalar RSUExampleScenario.node[124].nic.mac1609_4 TimesIntoBackoff 32
scalar RSUExampleScenario.node[124].nic.mac1609_4 SlotsBackoff 51
scalar RSUExampleScenario.node[124].nic.mac1609_4 NumInternalContention 0
scalar RSUExampleScenario.node[124].nic.mac1609_4 totalBusyTime 0.368504
scalar RSUExampleScenario.node[124].nic.mac1609_4 retriesExceeded:count 0
attr source org_car2x_veins_modules_mac_sigRetriesExceeded
scalar RSUExampleScenario.node[124].nic.mac1609_4 sentAcks:count 0
attr source org_car2x_veins_modules_mac_sigSentAck
scalar RSUExampleScenario.node[124].nic.mac1609_4 sentPackets:count 32
attr source org_car2x_veins_modules_mac_sigSentPacket
scalar RSUExampleScenario.node[124].nic.mac1609_4 collisions:count 0
attr source org_car2x_veins_modules_mac_sigCollision
scalar RSUExampleScenario.node[124].nic.mac1609_4 channelBusy:timeavg 0.1151575
attr source org_car2x_veins_modules_mac_sigChannelBusy
scalar RSUExampleScenario.node[124].veinsmobility startTime 116.8
scalar RSUExampleScenario.node[124].veinsmobility totalTime 3.2
scalar RSUExampleScenario.node[124].veinsmobility stopTime 120
scalar RSUExampleScenario.node[124].veinsmobility minSpeed 1.052024650099
scalar RSUExampleScenario.node[124].veinsmobility maxSpeed 4.9545006918943
scalar RSUExampleScenario.node[124].veinsmobility totalDistance 13.266152912485
scalar RSUExampleScenario.node[124].veinsmobility totalCO2Emission 6.84533040348
scalar RSUExampleScenario.node[125].appl generatedWSMs 0
scalar RSUExampleScenario.node[125].appl receivedWSMs 0
scalar RSUExampleScenario.node[125].appl generatedBSMs 31
scalar RSUExampleScenario.node[125].appl receivedBSMs 3157
scalar RSUExampleScenario.node[125].appl generatedWSAs 0
scalar RSUExampleScenario.node[125].appl receivedWSAs 0
scalar RSUExampleScenario.node[125].nic.phy80211p busyTime 0.11661419354838
scalar RSUExampleScenario.node[125].nic.mac1609_4 ReceivedUnicastPackets 0
scalar RSUExampleScenario.node[125].nic.mac1609_4 ReceivedBroadcasts 3157
scalar RSUExampleScenario.node[125].nic.mac1609_4 SentPackets 31
scalar RSUExampleScenario.node[125].nic.mac1609_4 SentAcknowledgements 0
scalar RSUExampleScenario.node[125].nic.mac1609_4 RetriesExceeded 0
scalar RSUExampleScenario.node[125].nic.mac1609_4 SNIRLostPackets 319
scalar RSUExampleScenario.node[125].nic.mac1609_4 RXTXLostPackets 0
scalar RSUExampleScenario.node[125].nic.mac1609_4 TotalLostPackets 319
scalar RSUExampleScenario.node[125].nic.mac1609_4 DroppedPacketsInMac 0
scalar RSUExampleScenario.node[125].nic.mac1609_4 TooLittleTime 0
scalar RSUExampleScenario.node[125].nic.mac1609_4 TimesIntoBackoff 31
scalar RSUExampleScenario.node[125].nic.mac1609_4 SlotsBackoff 49
scalar RSUExampleScenario.node[125].nic.mac1609_4 NumInternalContention 0
scalar RSUExampleScenario.node[125].nic.mac1609_4 totalBusyTime 0.357063
scalar RSUExampleScenario.node[125].nic.mac1609_4 retriesExceeded:count 0
attr source org_car2x_veins_modules_mac_sigRetriesExceeded
scalar RSUExampleScenario.node[125].nic.mac1609_4 sentAcks:count 0
attr source org_car2x_veins_modules_mac_sigSentAck
scalar RSUExampleScenario.node[125].nic.mac1609_4 sentPackets:count 31
attr source org_car2x_veins_modules_mac_sigSentPacket
scalar RSUExampleScenario.node[125].nic.mac1609_4 collisions:count 0
attr source org_car2x_veins_modules_mac_sigCollision
scalar RSUExampleScenario.node[125].nic.mac1609_4 channelBusy:timeavg 0.11518161290322
attr source org_car2x_veins_modules_mac_sigChannelBusy
scalar RSUExampleScenario.node[125].veinsmobility startTime 116.9
scalar RSUExampleScenario.node[125].veinsmobility totalTime 3.1
scalar RSUExampleScenario.node[125].veinsmobility stopTime 120
scalar RSUExampleScenario.node[125].veinsmobility minSpeed 1.3634328928684
scalar RSUExampleScenario.node[125].veinsmobility maxSpeed 2.45303502451
scalar RSUExampleScenario.node[125].veinsmobility totalDistance 6.3489540387523
scalar RSUExampleScenario.node[125].veinsmobility totalCO2Emission 4.3410955954322

