version 2
run Configurable_WiredAndWirelessHosts-0-20250826-17:33:44-4505
attr configname Configurable_WiredAndWirelessHosts
attr datetime 20250826-17:33:44
attr experiment Configurable_WiredAndWirelessHosts
attr inifile omnetpp.ini
attr iterationvars ""
attr iterationvarsf ""
attr measurement ""
attr network WiredAndWirelessHostsWithAP
attr processid 4505
attr repetition 0
attr replication #0
attr resultdir results
attr runnumber 0
attr seedset 210041226
param **.constraintAreaMinX 0m
param **.constraintAreaMinY 0m
param **.constraintAreaMinZ 0m
param **.constraintAreaMaxX 400m
param **.constraintAreaMaxY 400m
param **.constraintAreaMaxZ 0m
param **.initialZ 0m
param *.visualizer.packetDropVisualizer.displayPacketDrops true
param *.visualizer.mediumVisualizer.displayCommunicationRanges true
param *.visualizer.mediumVisualizer.displayInterferenceRanges true
param **.bitrate 2Mbps
param **.radio.transmitter.power 20mW
param **.radio.receiver.sensitivity -85dBm
param **.radio.receiver.snirThreshold 4dB
param **.radio.receiver.bandwidth "22 MHz"
param **.radioMedium.analogModel.typename "\"ScalarAnalogModel\""
param **.errorModel.typename "\"Ieee80211YansErrorModel\""
param **.radioMedium.backgroundNoise.power -110dBm
param **.hasUdp true
param **.*Host*.numApps 1
param **.sinkNode.udp.typename "\"Udp\""
param **.sinkNode.numApps 1
param **.sinkNode.app[0].typename "\"UdpSink\""
param **.sinkNode.app[0].localPort 1000
param **.*Host[*].app[0].typename "\"UdpBasicApp\""
param **.*Host[*].app[0].destAddresses "\"sinkNode\""
param **.*Host[*].app[*].destPort 1000
param **.*Host[*].app[*].messageLength 100B
param **.*Host[*].app[*].sendInterval 1s
param **.*Host[*].wlan[*].mac.dcf.channelAccess.pendingQueue.packetCapacity 100
param **.*Host[*].wlan[*].mac.dcf.channelAccess.cwMax 1023
param **.*Host[*].wlan[*].mac.dcf.channelAccess.cwMin 15
param **.wlan[*].mac.dcf.recoveryProcedure.shortRetryLimit 7
param **.wlan[*].mac.dcf.rtsPolicy.rtsThreshold 1024B
param WiredAndWirelessHostsWithAP.num_wireless 80
param WiredAndWirelessHostsWithAP.num_wired 0

scalar WiredAndWirelessHostsWithAP.radioMedium.propagation "Arrival computation count" 1320240
scalar WiredAndWirelessHostsWithAP.radioMedium "transmission count" 16503
scalar WiredAndWirelessHostsWithAP.radioMedium "signal send count" 1320240
scalar WiredAndWirelessHostsWithAP.radioMedium "reception computation count" 1313840
scalar WiredAndWirelessHostsWithAP.radioMedium "interference computation count" 3177226
scalar WiredAndWirelessHostsWithAP.radioMedium "reception decision computation count" 794369
scalar WiredAndWirelessHostsWithAP.radioMedium "listening decision computation count" 1327518
scalar WiredAndWirelessHostsWithAP.radioMedium "reception cache hit" 92.82878198458
attr unit %
scalar WiredAndWirelessHostsWithAP.radioMedium "interference cache hit" 66.666666666667
attr unit %
scalar WiredAndWirelessHostsWithAP.radioMedium "noise cache hit" 0
attr unit %
scalar WiredAndWirelessHostsWithAP.radioMedium "snir cache hit" 50
attr unit %
scalar WiredAndWirelessHostsWithAP.radioMedium "reception decision cache hit" 50
attr unit %
scalar WiredAndWirelessHostsWithAP.radioMedium "reception result cache hit" 0
attr unit %
scalar WiredAndWirelessHostsWithAP.wirelessHost[0].lo[0].lo rcvdPkFromHl:count 0
attr interpolationmode none
attr source packetReceivedFromUpper
attr title "packets received from higher layer, count"
scalar WiredAndWirelessHostsWithAP.wirelessHost[0].lo[0].lo rcvdPkFromHl:sum(packetBytes) 0
attr interpolationmode none
attr source packetReceivedFromUpper
attr title "packets received from higher layer, sum(packetBytes)"
scalar WiredAndWirelessHostsWithAP.wirelessHost[0].lo[0].lo passedUpPk:count 0
attr interpolationmode none
attr source packetSentToUpper
attr title "packets passed to higher layer, count"
scalar WiredAndWirelessHostsWithAP.wirelessHost[0].lo[0].lo passedUpPk:sum(packetBytes) 0
attr interpolationmode none
attr source packetSentToUpper
attr title "packets passed to higher layer, sum(packetBytes)"
scalar WiredAndWirelessHostsWithAP.wirelessHost[0].wlan[0].agent dropConfirm:count 0
attr title "dropped confirms, count"
scalar WiredAndWirelessHostsWithAP.wirelessHost[0].wlan[0].agent acceptConfirm:count 3
attr title "accepted confirms, count"
scalar WiredAndWirelessHostsWithAP.wirelessHost[0].wlan[0].agent sentRequest:count 3
attr title "sent requests, count"
scalar WiredAndWirelessHostsWithAP.wirelessHost[0].wlan[0].mac.dcf.channelAccess.pendingQueue packetPopped:count 45
attr interpolationmode none
attr title "packet popped, count"
scalar WiredAndWirelessHostsWithAP.wirelessHost[0].wlan[0].mac.dcf.channelAccess.pendingQueue packetPopped:sum(packetBytes) 6760
attr interpolationmode none
attr title "packet popped, sum(packetBytes)"
statistic WiredAndWirelessHostsWithAP.wirelessHost[0].wlan[0].mac.dcf.channelAccess.pendingQueue queueingTime:histogram
field count 45
field mean 2.8131012533333e-05
field stddev 0.00010185881256672
field min 0
field max 0.000548
field sum 0.001265895564
field sqrsum 4.9212050266688e-07
attr interpolationmode none
attr source queueingTime(packetPopped)
attr title "queueing times, histogram"
attr unit s
bin	-inf	0
bin	0	41
bin	1e-05	0
bin	2e-05	0
bin	3e-05	0
bin	4e-05	0
bin	5e-05	0
bin	6e-05	0
bin	7e-05	0
bin	8e-05	0
bin	9e-05	0
bin	0.0001	0
bin	0.00011	0
bin	0.00012	0
bin	0.00013	0
bin	0.00014	0
bin	0.00015	0
bin	0.00016	1
bin	0.00017	0
bin	0.00018	0
bin	0.00019	1
bin	0.0002	0
bin	0.00021	0
bin	0.00022	0
bin	0.00023	0
bin	0.00024	0
bin	0.00025	0
bin	0.00026	0
bin	0.00027	0
bin	0.00028	0
bin	0.00029	0
bin	0.0003	0
bin	0.00031	0
bin	0.00032	0
bin	0.00033	0
bin	0.00034	0
bin	0.00035	1
bin	0.00036	0
bin	0.00037	0
bin	0.00038	0
bin	0.00039	0
bin	0.0004	0
bin	0.00041	0
bin	0.00042	0
bin	0.00043	0
bin	0.00044	0
bin	0.00045	0
bin	0.00046	0
bin	0.00047	0
bin	0.00048	0
bin	0.00049	0
bin	0.0005	0
bin	0.00051	0
bin	0.00052	0
bin	0.00053	0
bin	0.00054	1
bin	0.00055	0
bin	0.00056	0
bin	0.00057	0
bin	0.00058	0
bin	0.00059	0
bin	0.0006	0
bin	0.00061	0
bin	0.00062	0
bin	0.00063	0
bin	0.00064	0
bin	0.00065	0
bin	0.00066	0
bin	0.00067	0
bin	0.00068	0
bin	0.00069	0
scalar WiredAndWirelessHostsWithAP.wirelessHost[0].wlan[0].mac.dcf.channelAccess.pendingQueue queueLength:max 1
attr interpolationmode sample-hold
attr source "count(packetPushed) - count(packetPopped) - count(packetRemoved) - count(packetDropped)"
attr title "queue length, max"
scalar WiredAndWirelessHostsWithAP.wirelessHost[0].wlan[0].mac.dcf.channelAccess.pendingQueue queueLength:timeavg 3.1865851371876e-05
attr interpolationmode sample-hold
attr source "count(packetPushed) - count(packetPopped) - count(packetRemoved) - count(packetDropped)"
attr title "queue length, timeavg"
scalar WiredAndWirelessHostsWithAP.wirelessHost[0].wlan[0].mac.dcf.channelAccess.pendingQueue packetPushed:count 45
attr interpolationmode none
attr title "packet pushed, count"
scalar WiredAndWirelessHostsWithAP.wirelessHost[0].wlan[0].mac.dcf.channelAccess.pendingQueue packetPushed:sum(packetBytes) 6760
attr interpolationmode none
attr title "packet pushed, sum(packetBytes)"
scalar WiredAndWirelessHostsWithAP.wirelessHost[0].wlan[0].mac.dcf.channelAccess.pendingQueue packetDropQueueOverflow:count 0
attr interpolationmode none
attr source packetDropReasonIsQueueOverflow(packetDropped)
attr title "packet drops: queue overflow, count"
scalar WiredAndWirelessHostsWithAP.wirelessHost[0].wlan[0].mac.dcf.channelAccess.pendingQueue packetDropQueueOverflow:sum(packetBytes) 0
attr interpolationmode none
attr source packetDropReasonIsQueueOverflow(packetDropped)
attr title "packet drops: queue overflow, sum(packetBytes)"
scalar WiredAndWirelessHostsWithAP.wirelessHost[0].wlan[0].mac.dcf.channelAccess.pendingQueue packetRemoved:count 0
attr interpolationmode none
attr title "packets removed, count"
scalar WiredAndWirelessHostsWithAP.wirelessHost[0].wlan[0].mac.dcf.channelAccess.pendingQueue packetRemoved:sum(packetBytes) 0
attr interpolationmode none
attr title "packets removed, sum(packetBytes)"
statistic WiredAndWirelessHostsWithAP.wirelessHost[0].wlan[0].mac.dcf.channelAccess.inProgressFrames queueingTime:histogram
field count 44
field mean 0.082993421519068
field stddev 0.050501599426028
field min 3.8e-05
field max 0.158140365344
field sum 3.651710546839
field sqrsum 0.41273564909668
attr interpolationmode none
attr source queueingTime(packetDequeued)
attr title "queueing times, histogram"
bin	-inf	0
bin	0	5
bin	0.002	1
bin	0.004	0
bin	0.006	1
bin	0.008	0
bin	0.01	0
bin	0.012	0
bin	0.014	0
bin	0.016	0
bin	0.018	0
bin	0.02	0
bin	0.022	0
bin	0.024	1
bin	0.026	0
bin	0.028	0
bin	0.03	0
bin	0.032	0
bin	0.034	0
bin	0.036	0
bin	0.038	0
bin	0.04	0
bin	0.042	0
bin	0.044	1
bin	0.046	2
bin	0.048	1
bin	0.05	2
bin	0.052	0
bin	0.054	0
bin	0.056	0
bin	0.058	1
bin	0.06	0
bin	0.062	0
bin	0.064	1
bin	0.066	1
bin	0.068	0
bin	0.07	2
bin	0.072	1
bin	0.074	0
bin	0.076	1
bin	0.078	1
bin	0.08	1
bin	0.082	1
bin	0.084	0
bin	0.086	0
bin	0.088	0
bin	0.09	1
bin	0.092	0
bin	0.094	0
bin	0.096	0
bin	0.098	1
bin	0.1	0
bin	0.102	0
bin	0.104	1
bin	0.106	1
bin	0.108	0
bin	0.11	0
bin	0.112	0
bin	0.114	0
bin	0.116	1
bin	0.118	0
bin	0.12	0
bin	0.122	3
bin	0.124	1
bin	0.126	0
bin	0.128	0
bin	0.13	1
bin	0.132	0
bin	0.134	1
bin	0.136	1
bin	0.138	1
bin	0.14	0
bin	0.142	2
bin	0.144	1
bin	0.146	1
bin	0.148	0
bin	0.15	0
bin	0.152	1
bin	0.154	0
bin	0.156	1
bin	0.158	1
bin	0.16	0
bin	0.162	0
bin	0.164	0
bin	0.166	0
bin	0.168	0
bin	0.17	0
bin	0.172	0
bin	0.174	0
bin	0.176	0
bin	0.178	0
bin	0.18	0
bin	0.182	0
bin	0.184	0
bin	0.186	0
bin	0.188	0
bin	0.19	0
bin	0.192	0
bin	0.194	0
bin	0.196	0
bin	0.198	0
scalar WiredAndWirelessHostsWithAP.wirelessHost[0].wlan[0].mac.dcf.channelAccess.inProgressFrames queueLength:max 1
attr interpolationmode sample-hold
attr source "count(packetEnqueued) - count(packetDequeued)"
attr title "queue length, max"
scalar WiredAndWirelessHostsWithAP.wirelessHost[0].wlan[0].mac.dcf.channelAccess.inProgressFrames queueLength:timeavg 0.091922958613579
attr interpolationmode sample-hold
attr source "count(packetEnqueued) - count(packetDequeued)"
attr title "queue length, timeavg"
scalar WiredAndWirelessHostsWithAP.wirelessHost[0].wlan[0].mac.dcf.channelAccess.contention channelAccessGranted:count 157
attr title "channel access granted, count"
scalar WiredAndWirelessHostsWithAP.wirelessHost[0].wlan[0].mac.dcf.channelAccess.contention stateChanged:count 43636
attr interpolationmode none
attr title "contention state changed, count"
scalar WiredAndWirelessHostsWithAP.wirelessHost[0].wlan[0].mac.dcf.channelAccess channelOwnershipChanged:count 313
attr interpolationmode sample-hold
attr title "channel ownership, count"
scalar WiredAndWirelessHostsWithAP.wirelessHost[0].wlan[0].mac.dcf.originatorMacDataService packetAggregated:count 0
attr title "packets aggregated, count"
scalar WiredAndWirelessHostsWithAP.wirelessHost[0].wlan[0].mac.dcf.originatorMacDataService packetFragmented:count 0
attr title "packets fragmented, count"
scalar WiredAndWirelessHostsWithAP.wirelessHost[0].wlan[0].mac.dcf.recipientMacDataService packetDeaggregated:count 0
attr title "packets deaggregated, count"
scalar WiredAndWirelessHostsWithAP.wirelessHost[0].wlan[0].mac.dcf.recipientMacDataService packetDefragmented:count 562
attr title "packets defragmented, count"
scalar WiredAndWirelessHostsWithAP.wirelessHost[0].wlan[0].mac.dcf.recipientMacDataService packetDropDuplicateDetected:count 0
attr interpolationmode none
attr source packetDropReasonIsDuplicateDetected(packetDropped)
attr title "packet drops: duplicate detected, count"
scalar WiredAndWirelessHostsWithAP.wirelessHost[0].wlan[0].mac.dcf.recipientMacDataService packetDropDuplicateDetected:sum(packetBytes) 0
attr interpolationmode none
attr source packetDropReasonIsDuplicateDetected(packetDropped)
attr title "packet drops: duplicate detected, sum(packetBytes)"
scalar WiredAndWirelessHostsWithAP.wirelessHost[0].wlan[0].mac.dcf.recoveryProcedure retryLimitReached:count 0
attr title "retry limit reached, count"
scalar WiredAndWirelessHostsWithAP.wirelessHost[0].wlan[0].mac.dcf frameSequenceFinished:count 156
attr title "finished frame sequences, count"
statistic WiredAndWirelessHostsWithAP.wirelessHost[0].wlan[0].mac.dcf frameSequenceDuration:histogram
field count 156
field mean 0.0010442034820641
field stddev 0.00017554140696552
field min 3.8e-05
field max 0.001367603975
field sum 0.162895743202
field sqrsum 0.00017487259402666
attr source frameSequenceDuration(frameSequenceFinished)
attr title "frame sequence durations, histogram"
bin	-inf	0
bin	0	0
bin	2e-05	1
bin	4e-05	0
bin	6e-05	0
bin	8e-05	3
bin	0.0001	0
bin	0.00012	0
bin	0.00014	0
bin	0.00016	0
bin	0.00018	0
bin	0.0002	0
bin	0.00022	0
bin	0.00024	0
bin	0.00026	0
bin	0.00028	0
bin	0.0003	0
bin	0.00032	0
bin	0.00034	0
bin	0.00036	0
bin	0.00038	0
bin	0.0004	0
bin	0.00042	0
bin	0.00044	0
bin	0.00046	0
bin	0.00048	0
bin	0.0005	0
bin	0.00052	0
bin	0.00054	0
bin	0.00056	0
bin	0.00058	0
bin	0.0006	0
bin	0.00062	0
bin	0.00064	0
bin	0.00066	4
bin	0.00068	0
bin	0.0007	1
bin	0.00072	0
bin	0.00074	0
bin	0.00076	0
bin	0.00078	0
bin	0.0008	0
bin	0.00082	0
bin	0.00084	0
bin	0.00086	0
bin	0.00088	0
bin	0.0009	0
bin	0.00092	0
bin	0.00094	0
bin	0.00096	0
bin	0.00098	0
bin	0.001	0
bin	0.00102	0
bin	0.00104	0
bin	0.00106	103
bin	0.00108	0
bin	0.0011	43
bin	0.00112	0
bin	0.00114	0
bin	0.00116	0
bin	0.00118	0
bin	0.0012	0
bin	0.00122	0
bin	0.00124	0
bin	0.00126	0
bin	0.00128	0
bin	0.0013	0
bin	0.00132	0
bin	0.00134	0
bin	0.00136	1
bin	0.00138	0
bin	0.0014	0
bin	0.00142	0
bin	0.00144	0
bin	0.00146	0
bin	0.00148	0
bin	0.0015	0
bin	0.00152	0
bin	0.00154	0
bin	0.00156	0
bin	0.00158	0
bin	0.0016	0
bin	0.00162	0
bin	0.00164	0
bin	0.00166	0
bin	0.00168	0
bin	0.0017	0
bin	0.00172	0
statistic WiredAndWirelessHostsWithAP.wirelessHost[0].wlan[0].mac.dcf frameSequenceNumPackets:histogram
field count 156
field mean 1.9935897435897
field stddev 0.080064076902543
field min 1
field max 2
field sum 311
field sqrsum 621
attr source frameSequenceNumPackets(frameSequenceFinished)
attr title "frame sequences: number of packets, histogram"
bin	-inf	0
bin	0	0
bin	1	1
bin	2	155
bin	3	0
scalar WiredAndWirelessHostsWithAP.wirelessHost[0].wlan[0].mac.dcf packetReceivedFromPeer:count 605
attr interpolationmode none
attr title "packets received, count"
scalar WiredAndWirelessHostsWithAP.wirelessHost[0].wlan[0].mac.dcf packetReceivedFromPeer:sum(packetBytes) 27652
attr interpolationmode none
attr title "packets received, sum(packetBytes)"
scalar WiredAndWirelessHostsWithAP.wirelessHost[0].wlan[0].mac.dcf packetReceivedFromPeerUnicast:count 48
attr interpolationmode none
attr source ieee80211Unicast(packetReceivedFromPeer)
attr title "packets received: unicast, count"
scalar WiredAndWirelessHostsWithAP.wirelessHost[0].wlan[0].mac.dcf packetReceivedFromPeerUnicast:sum(packetBytes) 836
attr interpolationmode none
attr source ieee80211Unicast(packetReceivedFromPeer)
attr title "packets received: unicast, sum(packetBytes)"
scalar WiredAndWirelessHostsWithAP.wirelessHost[0].wlan[0].mac.dcf packetReceivedFromPeerMulticast:count 557
attr interpolationmode none
attr source ieee80211Multicast(packetReceivedFromPeer)
attr title "packets received: multicast, count"
scalar WiredAndWirelessHostsWithAP.wirelessHost[0].wlan[0].mac.dcf packetReceivedFromPeerMulticast:sum(packetBytes) 26816
attr interpolationmode none
attr source ieee80211Multicast(packetReceivedFromPeer)
attr title "packets received: multicast, sum(packetBytes)"
scalar WiredAndWirelessHostsWithAP.wirelessHost[0].wlan[0].mac.dcf packetReceivedFromPeerBroadcast:count 557
attr interpolationmode none
attr source ieee80211Broadcast(packetReceivedFromPeer)
attr title "packets received: broadcast, count"
scalar WiredAndWirelessHostsWithAP.wirelessHost[0].wlan[0].mac.dcf packetReceivedFromPeerBroadcast:sum(packetBytes) 26816
attr interpolationmode none
attr source ieee80211Broadcast(packetReceivedFromPeer)
attr title "packets received: broadcast, sum(packetBytes)"
scalar WiredAndWirelessHostsWithAP.wirelessHost[0].wlan[0].mac.dcf packetReceivedFromPeerWithRetry:count 84
attr interpolationmode none
attr source ieee80211Retry(packetReceivedFromPeer)
attr title "packets received: with retry, count"
scalar WiredAndWirelessHostsWithAP.wirelessHost[0].wlan[0].mac.dcf packetReceivedFromPeerWithRetry:sum(packetBytes) 5376
attr interpolationmode none
attr source ieee80211Retry(packetReceivedFromPeer)
attr title "packets received: with retry, sum(packetBytes)"
scalar WiredAndWirelessHostsWithAP.wirelessHost[0].wlan[0].mac.dcf packetReceivedFromPeerWithoutRetry:count 521
attr interpolationmode none
attr source ieee80211NotRetry(packetReceivedFromPeer)
attr title "packets received: without retry, count"
scalar WiredAndWirelessHostsWithAP.wirelessHost[0].wlan[0].mac.dcf packetReceivedFromPeerWithoutRetry:sum(packetBytes) 22276
attr interpolationmode none
attr source ieee80211NotRetry(packetReceivedFromPeer)
attr title "packets received: without retry, sum(packetBytes)"
scalar WiredAndWirelessHostsWithAP.wirelessHost[0].wlan[0].mac.dcf packetSentToPeer:count 161
attr interpolationmode none
attr title "packets sent, count"
scalar WiredAndWirelessHostsWithAP.wirelessHost[0].wlan[0].mac.dcf packetSentToPeer:sum(packetBytes) 24634
attr interpolationmode none
attr title "packets sent, sum(packetBytes)"
scalar WiredAndWirelessHostsWithAP.wirelessHost[0].wlan[0].mac.dcf packetSentToPeerUnicast:count 160
attr interpolationmode none
attr source ieee80211Unicast(packetSentToPeer)
attr title "packets sent: unicast, count"
scalar WiredAndWirelessHostsWithAP.wirelessHost[0].wlan[0].mac.dcf packetSentToPeerUnicast:sum(packetBytes) 24602
attr interpolationmode none
attr source ieee80211Unicast(packetSentToPeer)
attr title "packets sent: unicast, sum(packetBytes)"
scalar WiredAndWirelessHostsWithAP.wirelessHost[0].wlan[0].mac.dcf packetSentToPeerMulticast:count 1
attr interpolationmode none
attr source ieee80211Multicast(packetSentToPeer)
attr title "packets sent: multicast, count"
scalar WiredAndWirelessHostsWithAP.wirelessHost[0].wlan[0].mac.dcf packetSentToPeerMulticast:sum(packetBytes) 32
attr interpolationmode none
attr source ieee80211Multicast(packetSentToPeer)
attr title "packets sent: multicast, sum(packetBytes)"
scalar WiredAndWirelessHostsWithAP.wirelessHost[0].wlan[0].mac.dcf packetSentToPeerBroadcast:count 1
attr interpolationmode none
attr source ieee80211Broadcast(packetSentToPeer)
attr title "packets sent: broadcast , count"
scalar WiredAndWirelessHostsWithAP.wirelessHost[0].wlan[0].mac.dcf packetSentToPeerBroadcast:sum(packetBytes) 32
attr interpolationmode none
attr source ieee80211Broadcast(packetSentToPeer)
attr title "packets sent: broadcast , sum(packetBytes)"
scalar WiredAndWirelessHostsWithAP.wirelessHost[0].wlan[0].mac.dcf packetSentToPeerWithRetry:count 112
attr interpolationmode none
attr source ieee80211Retry(packetSentToPeer)
attr title "packets sent: with retry, count"
scalar WiredAndWirelessHostsWithAP.wirelessHost[0].wlan[0].mac.dcf packetSentToPeerWithRetry:sum(packetBytes) 17968
attr interpolationmode none
attr source ieee80211Retry(packetSentToPeer)
attr title "packets sent: with retry, sum(packetBytes)"
scalar WiredAndWirelessHostsWithAP.wirelessHost[0].wlan[0].mac.dcf packetSentToPeerWithoutRetry:count 49
attr interpolationmode none
attr source ieee80211NotRetry(packetSentToPeer)
attr title "packets sent: without retry, count"
scalar WiredAndWirelessHostsWithAP.wirelessHost[0].wlan[0].mac.dcf packetSentToPeerWithoutRetry:sum(packetBytes) 6666
attr interpolationmode none
attr source ieee80211NotRetry(packetSentToPeer)
attr title "packets sent: without retry, sum(packetBytes)"
scalar WiredAndWirelessHostsWithAP.wirelessHost[0].wlan[0].mac.dcf packetDrop:count 7643
attr interpolationmode none
attr source packetDropped
attr title "packet drops, count"
scalar WiredAndWirelessHostsWithAP.wirelessHost[0].wlan[0].mac.dcf packetDrop:sum(packetBytes) 595830
attr interpolationmode none
attr source packetDropped
attr title "packet drops, sum(packetBytes)"
scalar WiredAndWirelessHostsWithAP.wirelessHost[0].wlan[0].mac.dcf packetDropNotAddressedToUs:count 7643
attr interpolationmode none
attr source packetDropReasonIsNotAddressedToUs(packetDropped)
attr title "packet drops: not addressed to us, count"
scalar WiredAndWirelessHostsWithAP.wirelessHost[0].wlan[0].mac.dcf packetDropNotAddressedToUs:sum(packetBytes) 595830
attr interpolationmode none
attr source packetDropReasonIsNotAddressedToUs(packetDropped)
attr title "packet drops: not addressed to us, sum(packetBytes)"
scalar WiredAndWirelessHostsWithAP.wirelessHost[0].wlan[0].mac.dcf packetDropQueueOverflow:count 0
attr interpolationmode none
attr source packetDropReasonIsQueueOverflow(packetDropped)
attr title "packet drops: queue overflow, count"
scalar WiredAndWirelessHostsWithAP.wirelessHost[0].wlan[0].mac.dcf packetDropQueueOverflow:sum(packetBytes) 0
attr interpolationmode none
attr source packetDropReasonIsQueueOverflow(packetDropped)
attr title "packet drops: queue overflow, sum(packetBytes)"
scalar WiredAndWirelessHostsWithAP.wirelessHost[0].wlan[0].mac.dcf packetDropRetryLimitReached:count 0
attr interpolationmode none
attr source packetDropReasonIsRetryLimitReached(packetDropped)
attr title "packet drops: retry limit reached, count"
scalar WiredAndWirelessHostsWithAP.wirelessHost[0].wlan[0].mac.dcf packetDropRetryLimitReached:sum(packetBytes) 0
attr interpolationmode none
attr source packetDropReasonIsRetryLimitReached(packetDropped)
attr title "packet drops: retry limit reached, sum(packetBytes)"
scalar WiredAndWirelessHostsWithAP.wirelessHost[0].wlan[0].mac.dcf linkBroken:count 0
attr interpolationmode none
attr title "link breaks, count"
scalar WiredAndWirelessHostsWithAP.wirelessHost[0].wlan[0].mac packetReceivedFromLower:count 9849
attr interpolationmode none
attr title "packets received from lower layer, count"
scalar WiredAndWirelessHostsWithAP.wirelessHost[0].wlan[0].mac packetReceivedFromLower:sum(packetBytes) 878746
attr interpolationmode none
attr title "packets received from lower layer, sum(packetBytes)"
scalar WiredAndWirelessHostsWithAP.wirelessHost[0].wlan[0].mac packetSentToLower:count 162
attr interpolationmode none
attr title "packets sent to lower layer, count"
scalar WiredAndWirelessHostsWithAP.wirelessHost[0].wlan[0].mac packetSentToLower:sum(packetBytes) 24798
attr interpolationmode none
attr title "packets sent to lower layer, sum(packetBytes)"
scalar WiredAndWirelessHostsWithAP.wirelessHost[0].wlan[0].mac packetReceivedFromUpper:count 41
attr interpolationmode none
attr title "packets received from upper layer, count"
scalar WiredAndWirelessHostsWithAP.wirelessHost[0].wlan[0].mac packetReceivedFromUpper:sum(packetBytes) 5476
attr interpolationmode none
attr title "packets received from upper layer, sum(packetBytes)"
scalar WiredAndWirelessHostsWithAP.wirelessHost[0].wlan[0].mac packetSentToUpper:count 85
attr interpolationmode none
attr title "packets sent to upper layer, count"
scalar WiredAndWirelessHostsWithAP.wirelessHost[0].wlan[0].mac packetSentToUpper:sum(packetBytes) 3078
attr interpolationmode none
attr title "packets sent to upper layer, sum(packetBytes)"
scalar WiredAndWirelessHostsWithAP.wirelessHost[0].wlan[0].mac packetDrop:count 9239
attr interpolationmode none
attr source packetDropped
attr title "packet drops, count"
scalar WiredAndWirelessHostsWithAP.wirelessHost[0].wlan[0].mac packetDrop:sum(packetBytes) 850974
attr interpolationmode none
attr source packetDropped
attr title "packet drops, sum(packetBytes)"
scalar WiredAndWirelessHostsWithAP.wirelessHost[0].wlan[0].mac packetDropIncorrectlyReceived:count 1596
attr interpolationmode none
attr source packetDropReasonIsIncorrectlyReceived(packetDropped)
attr title "packet drops: incorrectly received, count"
scalar WiredAndWirelessHostsWithAP.wirelessHost[0].wlan[0].mac packetDropIncorrectlyReceived:sum(packetBytes) 255144
attr interpolationmode none
attr source packetDropReasonIsIncorrectlyReceived(packetDropped)
attr title "packet drops: incorrectly received, sum(packetBytes)"
scalar WiredAndWirelessHostsWithAP.wirelessHost[0].wlan[0].mac packetDropNotAddressedToUs:count 7643
attr interpolationmode none
attr source packetDropReasonIsNotAddressedToUs(packetDropped)
attr title "packet drops: not addressed to us, count"
scalar WiredAndWirelessHostsWithAP.wirelessHost[0].wlan[0].mac packetDropNotAddressedToUs:sum(packetBytes) 595830
attr interpolationmode none
attr source packetDropReasonIsNotAddressedToUs(packetDropped)
attr title "packet drops: not addressed to us, sum(packetBytes)"
scalar WiredAndWirelessHostsWithAP.wirelessHost[0].wlan[0].mac packetDropQueueOverflow:count 0
attr interpolationmode none
attr source packetDropReasonIsQueueOverflow(packetDropped)
attr title "packet drops: queue overflow, count"
scalar WiredAndWirelessHostsWithAP.wirelessHost[0].wlan[0].mac packetDropQueueOverflow:sum(packetBytes) 0
attr interpolationmode none
attr source packetDropReasonIsQueueOverflow(packetDropped)
attr title "packet drops: queue overflow, sum(packetBytes)"
scalar WiredAndWirelessHostsWithAP.wirelessHost[0].wlan[0].mac packetDropRetryLimitReached:count 0
attr interpolationmode none
attr source packetDropReasonIsRetryLimitReached(packetDropped)
attr title "packet drops: retry limit reached, count"
scalar WiredAndWirelessHostsWithAP.wirelessHost[0].wlan[0].mac packetDropRetryLimitReached:sum(packetBytes) 0
attr interpolationmode none
attr source packetDropReasonIsRetryLimitReached(packetDropped)
attr title "packet drops: retry limit reached, sum(packetBytes)"
scalar WiredAndWirelessHostsWithAP.wirelessHost[0].wlan[0].mac packetDropDuplicateDetected:count 0
attr interpolationmode none
attr source packetDropReasonIsDuplicateDetected(packetDropped)
attr title "packet drops: duplicate detected, count"
scalar WiredAndWirelessHostsWithAP.wirelessHost[0].wlan[0].mac packetDropDuplicateDetected:sum(packetBytes) 0
attr interpolationmode none
attr source packetDropReasonIsDuplicateDetected(packetDropped)
attr title "packet drops: duplicate detected, sum(packetBytes)"
scalar WiredAndWirelessHostsWithAP.wirelessHost[0].wlan[0].mac packetDropOther:count 0
attr interpolationmode none
attr source packetDropReasonIsOther(packetDropped)
attr title "packet drops: other, count"
scalar WiredAndWirelessHostsWithAP.wirelessHost[0].wlan[0].mac packetDropOther:sum(packetBytes) 0
attr interpolationmode none
attr source packetDropReasonIsOther(packetDropped)
attr title "packet drops: other, sum(packetBytes)"
scalar WiredAndWirelessHostsWithAP.wirelessHost[0].wlan[0].mac linkBroken:count 0
attr interpolationmode none
attr title "link breaks, count"
statistic WiredAndWirelessHostsWithAP.wirelessHost[0].wlan[0].radio radioChannel:histogram
field count 4
field mean 0
field stddev 0
field min 0
field max 0
field sum 0
field sqrsum 0
attr interpolationmode sample-hold
attr source radioChannelChanged
attr title "Radio channel, histogram"
bin	-inf	0
bin	-0.5	0
bin	-0.48	0
bin	-0.46	0
bin	-0.44	0
bin	-0.42	0
bin	-0.4	0
bin	-0.38	0
bin	-0.36	0
bin	-0.34	0
bin	-0.32	0
bin	-0.3	0
bin	-0.28	0
bin	-0.26	0
bin	-0.24	0
bin	-0.22	0
bin	-0.2	0
bin	-0.18	0
bin	-0.16	0
bin	-0.14	0
bin	-0.12	0
bin	-0.1	0
bin	-0.08	0
bin	-0.06	0
bin	-0.04	0
bin	-0.02	0
bin	0	4
bin	0.02	0
bin	0.04	0
bin	0.06	0
bin	0.08	0
bin	0.1	0
bin	0.12	0
bin	0.14	0
bin	0.16	0
bin	0.18	0
bin	0.2	0
bin	0.22	0
bin	0.24	0
bin	0.26	0
bin	0.28	0
bin	0.3	0
bin	0.32	0
bin	0.34	0
bin	0.36	0
bin	0.38	0
bin	0.4	0
bin	0.42	0
bin	0.44	0
bin	0.46	0
bin	0.48	0
bin	0.5	0
scalar WiredAndWirelessHostsWithAP.wirelessHost[0].wlan[0].radio radioMode:count 326
attr interpolationmode sample-hold
attr source radioModeChanged
attr title "Radio mode, count"
scalar WiredAndWirelessHostsWithAP.wirelessHost[0].wlan[0].radio receptionState:count 21850
attr interpolationmode sample-hold
attr source receptionStateChanged
attr title "Radio reception state, count"
scalar WiredAndWirelessHostsWithAP.wirelessHost[0].wlan[0].radio transmissionState:count 646
attr interpolationmode sample-hold
attr source transmissionStateChanged
attr title "Radio transmission state, count"
statistic WiredAndWirelessHostsWithAP.wirelessHost[0].wlan[0].radio minSnir:histogram
field count 9849
field mean 5932.9023444119
field stddev 32719.647490883
field min 0.0084034066611348
field max 455067.19145795
field sum 58433155.190113
field sqrsum 10889704072242
attr source minimumSnir(packetSentToUpper)
attr title "Min SNIR, histogram"
bin	-inf	0
bin	0	9111
bin	8000	444
bin	16000	98
bin	24000	48
bin	32000	0
bin	40000	50
bin	48000	0
bin	56000	0
bin	64000	0
bin	72000	0
bin	80000	0
bin	88000	49
bin	96000	0
bin	104000	0
bin	112000	0
bin	120000	0
bin	128000	0
bin	136000	0
bin	144000	0
bin	152000	0
bin	160000	0
bin	168000	0
bin	176000	0
bin	184000	0
bin	192000	0
bin	200000	0
bin	208000	0
bin	216000	0
bin	224000	0
bin	232000	0
bin	240000	0
bin	248000	0
bin	256000	0
bin	264000	0
bin	272000	0
bin	280000	0
bin	288000	0
bin	296000	0
bin	304000	0
bin	312000	0
bin	320000	0
bin	328000	0
bin	336000	0
bin	344000	0
bin	352000	0
bin	360000	0
bin	368000	0
bin	376000	0
bin	384000	0
bin	392000	0
bin	400000	0
bin	408000	0
bin	416000	0
bin	424000	0
bin	432000	0
bin	440000	0
bin	448000	49
bin	456000	0
statistic WiredAndWirelessHostsWithAP.wirelessHost[0].wlan[0].radio packetErrorRate:histogram
field count 9849
field mean 0.16164153821199
field stddev 0.36617154893639
field min 0
field max 1
field sum 1592.0075098498
field sqrsum 1577.7701715478
attr source packetErrorRate(packetSentToUpper)
attr title "Packet error rate, histogram"
bin	-inf	0
bin	-0.5	0
bin	-0.48	0
bin	-0.46	0
bin	-0.44	0
bin	-0.42	0
bin	-0.4	0
bin	-0.38	0
bin	-0.36	0
bin	-0.34	0
bin	-0.32	0
bin	-0.3	0
bin	-0.28	0
bin	-0.26	0
bin	-0.24	0
bin	-0.22	0
bin	-0.2	0
bin	-0.18	0
bin	-0.16	0
bin	-0.14	0
bin	-0.12	0
bin	-0.1	0
bin	-0.08	0
bin	-0.06	0
bin	-0.04	0
bin	-0.02	0
bin	0	8214
bin	0.02	2
bin	0.04	6
bin	0.06	0
bin	0.08	2
bin	0.1	5
bin	0.12	2
bin	0.14	0
bin	0.16	2
bin	0.18	1
bin	0.2	0
bin	0.22	1
bin	0.24	3
bin	0.26	1
bin	0.28	3
bin	0.3	1
bin	0.32	3
bin	0.34	1
bin	0.36	0
bin	0.38	2
bin	0.4	1
bin	0.42	1
bin	0.44	0
bin	0.46	0
bin	0.48	3
bin	0.5	1
bin	0.52	5
bin	0.54	1
bin	0.56	1
bin	0.58	3
bin	0.6	3
bin	0.62	1
bin	0.64	1
bin	0.66	1
bin	0.68	1
bin	0.7	2
bin	0.72	1
bin	0.74	0
bin	0.76	2
bin	0.78	1
bin	0.8	0
bin	0.82	1
bin	0.84	0
bin	0.86	3
bin	0.88	6
bin	0.9	8
bin	0.92	2
bin	0.94	6
bin	0.96	8
bin	0.98	192
bin	1	1345
bin	1.02	0
statistic WiredAndWirelessHostsWithAP.wirelessHost[0].wlan[0].radio bitErrorRate:histogram
field count 0
field mean -nan
field stddev nan
field min nan
field max nan
field sum 0
field sqrsum 0
attr source bitErrorRate(packetSentToUpper)
attr title "Bit error rate, histogram"
bin	-inf	0
bin	0	0
bin	1	0
statistic WiredAndWirelessHostsWithAP.wirelessHost[0].wlan[0].radio symbolErrorRate:histogram
field count 0
field mean -nan
field stddev nan
field min nan
field max nan
field sum 0
field sqrsum 0
attr source symbolErrorRate(packetSentToUpper)
attr title "Symbol error rate, histogram"
bin	-inf	0
bin	0	0
bin	1	0
scalar WiredAndWirelessHostsWithAP.wirelessHost[0].ipv4.ip packetDropAddressResolutionFailed:count 0
attr interpolationmode none
attr source packetDropReasonIsAddressResolutionFailed(packetDropped)
attr title "packet drop: address resolution failed, count"
scalar WiredAndWirelessHostsWithAP.wirelessHost[0].ipv4.ip packetDropAddressResolutionFailed:sum(packetBytes) 0
attr interpolationmode none
attr source packetDropReasonIsAddressResolutionFailed(packetDropped)
attr title "packet drop: address resolution failed, sum(packetBytes)"
scalar WiredAndWirelessHostsWithAP.wirelessHost[0].ipv4.ip packetDropHopLimitReached:count 0
attr interpolationmode none
attr source packetDropReasonIsHopLimitReached(packetDropped)
attr title "packet drop: hop limit reached, count"
scalar WiredAndWirelessHostsWithAP.wirelessHost[0].ipv4.ip packetDropHopLimitReached:sum(packetBytes) 0
attr interpolationmode none
attr source packetDropReasonIsHopLimitReached(packetDropped)
attr title "packet drop: hop limit reached, sum(packetBytes)"
scalar WiredAndWirelessHostsWithAP.wirelessHost[0].ipv4.ip packetDropForwardingDisabled:count 0
attr interpolationmode none
attr source packetDropReasonIsForwardingDisabled(packetDropped)
attr title "packet drop: forwarding disabled, count"
scalar WiredAndWirelessHostsWithAP.wirelessHost[0].ipv4.ip packetDropForwardingDisabled:sum(packetBytes) 0
attr interpolationmode none
attr source packetDropReasonIsForwardingDisabled(packetDropped)
attr title "packet drop: forwarding disabled, sum(packetBytes)"
scalar WiredAndWirelessHostsWithAP.wirelessHost[0].ipv4.ip packetDropNoInterfaceFound:count 0
attr interpolationmode none
attr source packetDropReasonIsNoInterfaceFound(packetDropped)
attr title "packet drop: no interface found, count"
scalar WiredAndWirelessHostsWithAP.wirelessHost[0].ipv4.ip packetDropNoInterfaceFound:sum(packetBytes) 0
attr interpolationmode none
attr source packetDropReasonIsNoInterfaceFound(packetDropped)
attr title "packet drop: no interface found, sum(packetBytes)"
scalar WiredAndWirelessHostsWithAP.wirelessHost[0].ipv4.ip packetDropNoRouteFound:count 0
attr interpolationmode none
attr source packetDropReasonIsNoRouteFound(packetDropped)
attr title "packet drop: no route found, count"
scalar WiredAndWirelessHostsWithAP.wirelessHost[0].ipv4.ip packetDropNoRouteFound:sum(packetBytes) 0
attr interpolationmode none
attr source packetDropReasonIsNoRouteFound(packetDropped)
attr title "packet drop: no route found, sum(packetBytes)"
scalar WiredAndWirelessHostsWithAP.wirelessHost[0].ipv4.ip packetDropUndefined:count 0
attr interpolationmode none
attr source packetDropReasonIsUndefined(packetDropped)
attr title "packet drop: undefined, count"
scalar WiredAndWirelessHostsWithAP.wirelessHost[0].ipv4.ip packetDropUndefined:sum(packetBytes) 0
attr interpolationmode none
attr source packetDropReasonIsUndefined(packetDropped)
attr title "packet drop: undefined, sum(packetBytes)"
scalar WiredAndWirelessHostsWithAP.wirelessHost[0].ipv4.arp arpResolutionFailed:count 0
attr title "ARP failed resolutions, count"
scalar WiredAndWirelessHostsWithAP.wirelessHost[0].ipv4.arp arpResolutionCompleted:count 1
attr title "ARP completed resolutions, count"
scalar WiredAndWirelessHostsWithAP.wirelessHost[0].ipv4.arp arpResolutionInitiated:count 1
attr title "ARP initiated resolutions, count"
scalar WiredAndWirelessHostsWithAP.wirelessHost[0].ipv4.arp arpReplySent:count 0
attr source arpReplySent
attr title "ARP replies sent, count"
scalar WiredAndWirelessHostsWithAP.wirelessHost[0].ipv4.arp arpReplySent:sum(packetBytes) 0
attr source arpReplySent
attr title "ARP replies sent, sum(packetBytes)"
scalar WiredAndWirelessHostsWithAP.wirelessHost[0].ipv4.arp arpRequestSent:count 1
attr source arpRequestSent
attr title "ARP request sent, count"
scalar WiredAndWirelessHostsWithAP.wirelessHost[0].ipv4.arp arpRequestSent:sum(packetBytes) 28
attr source arpRequestSent
attr title "ARP request sent, sum(packetBytes)"
scalar WiredAndWirelessHostsWithAP.wirelessHost[0].udp packetReceived:count 0
attr interpolationmode none
attr source packetReceived
attr title "packets received, count"
scalar WiredAndWirelessHostsWithAP.wirelessHost[0].udp packetReceived:sum(packetBytes) 0
attr interpolationmode none
attr source packetReceived
attr title "packets received, sum(packetBytes)"
scalar WiredAndWirelessHostsWithAP.wirelessHost[0].udp packetSent:count 40
attr interpolationmode none
attr source packetSent
attr title "packets sent, count"
scalar WiredAndWirelessHostsWithAP.wirelessHost[0].udp packetSent:sum(packetBytes) 4320
attr interpolationmode none
attr source packetSent
attr title "packets sent, sum(packetBytes)"
scalar WiredAndWirelessHostsWithAP.wirelessHost[0].udp passedUpPk:count 0
attr interpolationmode none
attr source packetSentToUpper
attr title "packets passed up, count"
scalar WiredAndWirelessHostsWithAP.wirelessHost[0].udp droppedPkWrongPort:count 0
attr interpolationmode none
attr source packetDropReasonIsNoPortFound(packetDropped)
attr title "packets dropped (wrong port), count"
scalar WiredAndWirelessHostsWithAP.wirelessHost[0].udp droppedPkBadChecksum:count 0
attr interpolationmode none
attr source packetDropReasonIsIncorrectlyReceived(packetDropped)
attr title "packets dropped (checksum error), count"
scalar WiredAndWirelessHostsWithAP.wirelessHost[0].app[0] "packets sent" 40
scalar WiredAndWirelessHostsWithAP.wirelessHost[0].app[0] "packets received" 0
scalar WiredAndWirelessHostsWithAP.wirelessHost[0].app[0] packetReceived:count 0
attr interpolationmode none
attr source packetReceived
attr title "packets received, count"
scalar WiredAndWirelessHostsWithAP.wirelessHost[0].app[0] packetReceived:sum(packetBytes) 0
attr interpolationmode none
attr source packetReceived
attr title "packets received, sum(packetBytes)"
statistic WiredAndWirelessHostsWithAP.wirelessHost[0].app[0] rcvdPkLifetime:stats
field count 0
field mean -nan
field stddev nan
field min nan
field max nan
field sum 0
field sqrsum 0
attr interpolationmode none
attr source dataAge(packetReceived)
attr title "received packet lifetime, stats"
attr unit s
scalar WiredAndWirelessHostsWithAP.wirelessHost[0].app[0] packetSent:count 40
attr interpolationmode none
attr source packetSent
attr title "packets sent, count"
scalar WiredAndWirelessHostsWithAP.wirelessHost[0].app[0] packetSent:sum(packetBytes) 4000
attr interpolationmode none
attr source packetSent
attr title "packets sent, sum(packetBytes)"
scalar WiredAndWirelessHostsWithAP.wirelessHost[1].lo[0].lo rcvdPkFromHl:count 0
attr interpolationmode none
attr source packetReceivedFromUpper
attr title "packets received from higher layer, count"
scalar WiredAndWirelessHostsWithAP.wirelessHost[1].lo[0].lo rcvdPkFromHl:sum(packetBytes) 0
attr interpolationmode none
attr source packetReceivedFromUpper
attr title "packets received from higher layer, sum(packetBytes)"
scalar WiredAndWirelessHostsWithAP.wirelessHost[1].lo[0].lo passedUpPk:count 0
attr interpolationmode none
attr source packetSentToUpper
attr title "packets passed to higher layer, count"
scalar WiredAndWirelessHostsWithAP.wirelessHost[1].lo[0].lo passedUpPk:sum(packetBytes) 0
attr interpolationmode none
attr source packetSentToUpper
attr title "packets passed to higher layer, sum(packetBytes)"
scalar WiredAndWirelessHostsWithAP.wirelessHost[1].wlan[0].agent dropConfirm:count 0
attr title "dropped confirms, count"
scalar WiredAndWirelessHostsWithAP.wirelessHost[1].wlan[0].agent acceptConfirm:count 3
attr title "accepted confirms, count"
scalar WiredAndWirelessHostsWithAP.wirelessHost[1].wlan[0].agent sentRequest:count 3
attr title "sent requests, count"
scalar WiredAndWirelessHostsWithAP.wirelessHost[1].wlan[0].mac.dcf.channelAccess.pendingQueue packetPopped:count 45
attr interpolationmode none
attr title "packet popped, count"
scalar WiredAndWirelessHostsWithAP.wirelessHost[1].wlan[0].mac.dcf.channelAccess.pendingQueue packetPopped:sum(packetBytes) 6760
attr interpolationmode none
attr title "packet popped, sum(packetBytes)"
statistic WiredAndWirelessHostsWithAP.wirelessHost[1].wlan[0].mac.dcf.channelAccess.pendingQueue queueingTime:histogram
field count 45
field mean 4.0284662577778e-05
field stddev 0.00021495911767837
field min 0
field max 0.001424809816
field sum 0.001812809816
field sqrsum 2.10615501177e-06
attr interpolationmode none
attr source queueingTime(packetPopped)
attr title "queueing times, histogram"
attr unit s
bin	-inf	0
bin	0	42
bin	2e-05	0
bin	4e-05	0
bin	6e-05	0
bin	8e-05	0
bin	0.0001	0
bin	0.00012	0
bin	0.00014	0
bin	0.00016	1
bin	0.00018	0
bin	0.0002	1
bin	0.00022	0
bin	0.00024	0
bin	0.00026	0
bin	0.00028	0
bin	0.0003	0
bin	0.00032	0
bin	0.00034	0
bin	0.00036	0
bin	0.00038	0
bin	0.0004	0
bin	0.00042	0
bin	0.00044	0
bin	0.00046	0
bin	0.00048	0
bin	0.0005	0
bin	0.00052	0
bin	0.00054	0
bin	0.00056	0
bin	0.00058	0
bin	0.0006	0
bin	0.00062	0
bin	0.00064	0
bin	0.00066	0
bin	0.00068	0
bin	0.0007	0
bin	0.00072	0
bin	0.00074	0
bin	0.00076	0
bin	0.00078	0
bin	0.0008	0
bin	0.00082	0
bin	0.00084	0
bin	0.00086	0
bin	0.00088	0
bin	0.0009	0
bin	0.00092	0
bin	0.00094	0
bin	0.00096	0
bin	0.00098	0
bin	0.001	0
bin	0.00102	0
bin	0.00104	0
bin	0.00106	0
bin	0.00108	0
bin	0.0011	0
bin	0.00112	0
bin	0.00114	0
bin	0.00116	0
bin	0.00118	0
bin	0.0012	0
bin	0.00122	0
bin	0.00124	0
bin	0.00126	0
bin	0.00128	0
bin	0.0013	0
bin	0.00132	0
bin	0.00134	0
bin	0.00136	0
bin	0.00138	0
bin	0.0014	0
bin	0.00142	1
bin	0.00144	0
bin	0.00146	0
bin	0.00148	0
bin	0.0015	0
bin	0.00152	0
bin	0.00154	0
bin	0.00156	0
bin	0.00158	0
bin	0.0016	0
bin	0.00162	0
bin	0.00164	0
bin	0.00166	0
bin	0.00168	0
bin	0.0017	0
bin	0.00172	0
bin	0.00174	0
bin	0.00176	0
bin	0.00178	0
bin	0.0018	0
scalar WiredAndWirelessHostsWithAP.wirelessHost[1].wlan[0].mac.dcf.channelAccess.pendingQueue queueLength:max 1
attr interpolationmode sample-hold
attr source "count(packetPushed) - count(packetPopped) - count(packetRemoved) - count(packetDropped)"
attr title "queue length, max"
scalar WiredAndWirelessHostsWithAP.wirelessHost[1].wlan[0].mac.dcf.channelAccess.pendingQueue queueLength:timeavg 4.5674638793236e-05
attr interpolationmode sample-hold
attr source "count(packetPushed) - count(packetPopped) - count(packetRemoved) - count(packetDropped)"
attr title "queue length, timeavg"
scalar WiredAndWirelessHostsWithAP.wirelessHost[1].wlan[0].mac.dcf.channelAccess.pendingQueue packetPushed:count 45
attr interpolationmode none
attr title "packet pushed, count"
scalar WiredAndWirelessHostsWithAP.wirelessHost[1].wlan[0].mac.dcf.channelAccess.pendingQueue packetPushed:sum(packetBytes) 6760
attr interpolationmode none
attr title "packet pushed, sum(packetBytes)"
scalar WiredAndWirelessHostsWithAP.wirelessHost[1].wlan[0].mac.dcf.channelAccess.pendingQueue packetDropQueueOverflow:count 0
attr interpolationmode none
attr source packetDropReasonIsQueueOverflow(packetDropped)
attr title "packet drops: queue overflow, count"
scalar WiredAndWirelessHostsWithAP.wirelessHost[1].wlan[0].mac.dcf.channelAccess.pendingQueue packetDropQueueOverflow:sum(packetBytes) 0
attr interpolationmode none
attr source packetDropReasonIsQueueOverflow(packetDropped)
attr title "packet drops: queue overflow, sum(packetBytes)"
scalar WiredAndWirelessHostsWithAP.wirelessHost[1].wlan[0].mac.dcf.channelAccess.pendingQueue packetRemoved:count 0
attr interpolationmode none
attr title "packets removed, count"
scalar WiredAndWirelessHostsWithAP.wirelessHost[1].wlan[0].mac.dcf.channelAccess.pendingQueue packetRemoved:sum(packetBytes) 0
attr interpolationmode none
attr title "packets removed, sum(packetBytes)"
statistic WiredAndWirelessHostsWithAP.wirelessHost[1].wlan[0].mac.dcf.channelAccess.inProgressFrames queueingTime:histogram
field count 44
field mean 0.072104611377
field stddev 0.051433055842295
field min 3.8e-05
field max 0.200133245359
field sum 3.172602900588
field sqrsum 0.34250974623133
attr interpolationmode none
attr source queueingTime(packetDequeued)
attr title "queueing times, histogram"
bin	-inf	0
bin	0	6
bin	0.005	0
bin	0.01	1
bin	0.015	2
bin	0.02	0
bin	0.025	1
bin	0.03	3
bin	0.035	2
bin	0.04	1
bin	0.045	1
bin	0.05	2
bin	0.055	1
bin	0.06	3
bin	0.065	0
bin	0.07	0
bin	0.075	0
bin	0.08	1
bin	0.085	1
bin	0.09	1
bin	0.095	3
bin	0.1	3
bin	0.105	1
bin	0.11	1
bin	0.115	3
bin	0.12	1
bin	0.125	1
bin	0.13	0
bin	0.135	0
bin	0.14	0
bin	0.145	3
bin	0.15	0
bin	0.155	0
bin	0.16	1
bin	0.165	0
bin	0.17	0
bin	0.175	0
bin	0.18	0
bin	0.185	0
bin	0.19	0
bin	0.195	0
bin	0.2	1
bin	0.205	0
bin	0.21	0
bin	0.215	0
bin	0.22	0
bin	0.225	0
bin	0.23	0
bin	0.235	0
bin	0.24	0
bin	0.245	0
bin	0.25	0
bin	0.255	0
scalar WiredAndWirelessHostsWithAP.wirelessHost[1].wlan[0].mac.dcf.channelAccess.inProgressFrames queueLength:max 1
attr interpolationmode sample-hold
attr source "count(packetEnqueued) - count(packetDequeued)"
attr title "queue length, max"
scalar WiredAndWirelessHostsWithAP.wirelessHost[1].wlan[0].mac.dcf.channelAccess.inProgressFrames queueLength:timeavg 0.079935297260509
attr interpolationmode sample-hold
attr source "count(packetEnqueued) - count(packetDequeued)"
attr title "queue length, timeavg"
scalar WiredAndWirelessHostsWithAP.wirelessHost[1].wlan[0].mac.dcf.channelAccess.contention channelAccessGranted:count 144
attr title "channel access granted, count"
scalar WiredAndWirelessHostsWithAP.wirelessHost[1].wlan[0].mac.dcf.channelAccess.contention stateChanged:count 43134
attr interpolationmode none
attr title "contention state changed, count"
scalar WiredAndWirelessHostsWithAP.wirelessHost[1].wlan[0].mac.dcf.channelAccess channelOwnershipChanged:count 287
attr interpolationmode sample-hold
attr title "channel ownership, count"
scalar WiredAndWirelessHostsWithAP.wirelessHost[1].wlan[0].mac.dcf.originatorMacDataService packetAggregated:count 0
attr title "packets aggregated, count"
scalar WiredAndWirelessHostsWithAP.wirelessHost[1].wlan[0].mac.dcf.originatorMacDataService packetFragmented:count 0
attr title "packets fragmented, count"
scalar WiredAndWirelessHostsWithAP.wirelessHost[1].wlan[0].mac.dcf.recipientMacDataService packetDeaggregated:count 0
attr title "packets deaggregated, count"
scalar WiredAndWirelessHostsWithAP.wirelessHost[1].wlan[0].mac.dcf.recipientMacDataService packetDefragmented:count 563
attr title "packets defragmented, count"
scalar WiredAndWirelessHostsWithAP.wirelessHost[1].wlan[0].mac.dcf.recipientMacDataService packetDropDuplicateDetected:count 0
attr interpolationmode none
attr source packetDropReasonIsDuplicateDetected(packetDropped)
attr title "packet drops: duplicate detected, count"
scalar WiredAndWirelessHostsWithAP.wirelessHost[1].wlan[0].mac.dcf.recipientMacDataService packetDropDuplicateDetected:sum(packetBytes) 0
attr interpolationmode none
attr source packetDropReasonIsDuplicateDetected(packetDropped)
attr title "packet drops: duplicate detected, sum(packetBytes)"
scalar WiredAndWirelessHostsWithAP.wirelessHost[1].wlan[0].mac.dcf.recoveryProcedure retryLimitReached:count 0
attr title "retry limit reached, count"
scalar WiredAndWirelessHostsWithAP.wirelessHost[1].wlan[0].mac.dcf frameSequenceFinished:count 143
attr title "finished frame sequences, count"
statistic WiredAndWirelessHostsWithAP.wirelessHost[1].wlan[0].mac.dcf frameSequenceDuration:histogram
field count 143
field mean 0.0010475027094615
field stddev 0.000204488944939
field min 3.8e-05
field max 0.00176738344
field sum 0.149792887453
field sqrsum 0.00016284628892661
attr source frameSequenceDuration(frameSequenceFinished)
attr title "frame sequence durations, histogram"
bin	-inf	0
bin	0	1
bin	5e-05	3
bin	0.0001	0
bin	0.00015	0
bin	0.0002	0
bin	0.00025	0
bin	0.0003	0
bin	0.00035	0
bin	0.0004	0
bin	0.00045	0
bin	0.0005	0
bin	0.00055	0
bin	0.0006	0
bin	0.00065	5
bin	0.0007	1
bin	0.00075	0
bin	0.0008	0
bin	0.00085	0
bin	0.0009	0
bin	0.00095	0
bin	0.001	0
bin	0.00105	91
bin	0.0011	39
bin	0.00115	0
bin	0.0012	0
bin	0.00125	0
bin	0.0013	0
bin	0.00135	1
bin	0.0014	0
bin	0.00145	0
bin	0.0015	0
bin	0.00155	0
bin	0.0016	0
bin	0.00165	0
bin	0.0017	0
bin	0.00175	2
bin	0.0018	0
bin	0.00185	0
bin	0.0019	0
bin	0.00195	0
bin	0.002	0
bin	0.00205	0
bin	0.0021	0
bin	0.00215	0
bin	0.0022	0
statistic WiredAndWirelessHostsWithAP.wirelessHost[1].wlan[0].mac.dcf frameSequenceNumPackets:histogram
field count 143
field mean 1.993006993007
field stddev 0.083624201000711
field min 1
field max 2
field sum 285
field sqrsum 569
attr source frameSequenceNumPackets(frameSequenceFinished)
attr title "frame sequences: number of packets, histogram"
bin	-inf	0
bin	0	0
bin	1	1
bin	2	142
bin	3	0
scalar WiredAndWirelessHostsWithAP.wirelessHost[1].wlan[0].mac.dcf packetReceivedFromPeer:count 606
attr interpolationmode none
attr title "packets received, count"
scalar WiredAndWirelessHostsWithAP.wirelessHost[1].wlan[0].mac.dcf packetReceivedFromPeer:sum(packetBytes) 27732
attr interpolationmode none
attr title "packets received, sum(packetBytes)"
scalar WiredAndWirelessHostsWithAP.wirelessHost[1].wlan[0].mac.dcf packetReceivedFromPeerUnicast:count 48
attr interpolationmode none
attr source ieee80211Unicast(packetReceivedFromPeer)
attr title "packets received: unicast, count"
scalar WiredAndWirelessHostsWithAP.wirelessHost[1].wlan[0].mac.dcf packetReceivedFromPeerUnicast:sum(packetBytes) 836
attr interpolationmode none
attr source ieee80211Unicast(packetReceivedFromPeer)
attr title "packets received: unicast, sum(packetBytes)"
scalar WiredAndWirelessHostsWithAP.wirelessHost[1].wlan[0].mac.dcf packetReceivedFromPeerMulticast:count 558
attr interpolationmode none
attr source ieee80211Multicast(packetReceivedFromPeer)
attr title "packets received: multicast, count"
scalar WiredAndWirelessHostsWithAP.wirelessHost[1].wlan[0].mac.dcf packetReceivedFromPeerMulticast:sum(packetBytes) 26896
attr interpolationmode none
attr source ieee80211Multicast(packetReceivedFromPeer)
attr title "packets received: multicast, sum(packetBytes)"
scalar WiredAndWirelessHostsWithAP.wirelessHost[1].wlan[0].mac.dcf packetReceivedFromPeerBroadcast:count 558
attr interpolationmode none
attr source ieee80211Broadcast(packetReceivedFromPeer)
attr title "packets received: broadcast, count"
scalar WiredAndWirelessHostsWithAP.wirelessHost[1].wlan[0].mac.dcf packetReceivedFromPeerBroadcast:sum(packetBytes) 26896
attr interpolationmode none
attr source ieee80211Broadcast(packetReceivedFromPeer)
attr title "packets received: broadcast, sum(packetBytes)"
scalar WiredAndWirelessHostsWithAP.wirelessHost[1].wlan[0].mac.dcf packetReceivedFromPeerWithRetry:count 85
attr interpolationmode none
attr source ieee80211Retry(packetReceivedFromPeer)
attr title "packets received: with retry, count"
scalar WiredAndWirelessHostsWithAP.wirelessHost[1].wlan[0].mac.dcf packetReceivedFromPeerWithRetry:sum(packetBytes) 5440
attr interpolationmode none
attr source ieee80211Retry(packetReceivedFromPeer)
attr title "packets received: with retry, sum(packetBytes)"
scalar WiredAndWirelessHostsWithAP.wirelessHost[1].wlan[0].mac.dcf packetReceivedFromPeerWithoutRetry:count 521
attr interpolationmode none
attr source ieee80211NotRetry(packetReceivedFromPeer)
attr title "packets received: without retry, count"
scalar WiredAndWirelessHostsWithAP.wirelessHost[1].wlan[0].mac.dcf packetReceivedFromPeerWithoutRetry:sum(packetBytes) 22292
attr interpolationmode none
attr source ieee80211NotRetry(packetReceivedFromPeer)
attr title "packets received: without retry, sum(packetBytes)"
scalar WiredAndWirelessHostsWithAP.wirelessHost[1].wlan[0].mac.dcf packetSentToPeer:count 148
attr interpolationmode none
attr title "packets sent, count"
scalar WiredAndWirelessHostsWithAP.wirelessHost[1].wlan[0].mac.dcf packetSentToPeer:sum(packetBytes) 22402
attr interpolationmode none
attr title "packets sent, sum(packetBytes)"
scalar WiredAndWirelessHostsWithAP.wirelessHost[1].wlan[0].mac.dcf packetSentToPeerUnicast:count 147
attr interpolationmode none
attr source ieee80211Unicast(packetSentToPeer)
attr title "packets sent: unicast, count"
scalar WiredAndWirelessHostsWithAP.wirelessHost[1].wlan[0].mac.dcf packetSentToPeerUnicast:sum(packetBytes) 22370
attr interpolationmode none
attr source ieee80211Unicast(packetSentToPeer)
attr title "packets sent: unicast, sum(packetBytes)"
scalar WiredAndWirelessHostsWithAP.wirelessHost[1].wlan[0].mac.dcf packetSentToPeerMulticast:count 1
attr interpolationmode none
attr source ieee80211Multicast(packetSentToPeer)
attr title "packets sent: multicast, count"
scalar WiredAndWirelessHostsWithAP.wirelessHost[1].wlan[0].mac.dcf packetSentToPeerMulticast:sum(packetBytes) 32
attr interpolationmode none
attr source ieee80211Multicast(packetSentToPeer)
attr title "packets sent: multicast, sum(packetBytes)"
scalar WiredAndWirelessHostsWithAP.wirelessHost[1].wlan[0].mac.dcf packetSentToPeerBroadcast:count 1
attr interpolationmode none
attr source ieee80211Broadcast(packetSentToPeer)
attr title "packets sent: broadcast , count"
scalar WiredAndWirelessHostsWithAP.wirelessHost[1].wlan[0].mac.dcf packetSentToPeerBroadcast:sum(packetBytes) 32
attr interpolationmode none
attr source ieee80211Broadcast(packetSentToPeer)
attr title "packets sent: broadcast , sum(packetBytes)"
scalar WiredAndWirelessHostsWithAP.wirelessHost[1].wlan[0].mac.dcf packetSentToPeerWithRetry:count 99
attr interpolationmode none
attr source ieee80211Retry(packetSentToPeer)
attr title "packets sent: with retry, count"
scalar WiredAndWirelessHostsWithAP.wirelessHost[1].wlan[0].mac.dcf packetSentToPeerWithRetry:sum(packetBytes) 15736
attr interpolationmode none
attr source ieee80211Retry(packetSentToPeer)
attr title "packets sent: with retry, sum(packetBytes)"
scalar WiredAndWirelessHostsWithAP.wirelessHost[1].wlan[0].mac.dcf packetSentToPeerWithoutRetry:count 49
attr interpolationmode none
attr source ieee80211NotRetry(packetSentToPeer)
attr title "packets sent: without retry, count"
scalar WiredAndWirelessHostsWithAP.wirelessHost[1].wlan[0].mac.dcf packetSentToPeerWithoutRetry:sum(packetBytes) 6666
attr interpolationmode none
attr source ieee80211NotRetry(packetSentToPeer)
attr title "packets sent: without retry, sum(packetBytes)"
scalar WiredAndWirelessHostsWithAP.wirelessHost[1].wlan[0].mac.dcf packetDrop:count 7817
attr interpolationmode none
attr source packetDropped
attr title "packet drops, count"
scalar WiredAndWirelessHostsWithAP.wirelessHost[1].wlan[0].mac.dcf packetDrop:sum(packetBytes) 622772
attr interpolationmode none
attr source packetDropped
attr title "packet drops, sum(packetBytes)"
scalar WiredAndWirelessHostsWithAP.wirelessHost[1].wlan[0].mac.dcf packetDropNotAddressedToUs:count 7817
attr interpolationmode none
attr source packetDropReasonIsNotAddressedToUs(packetDropped)
attr title "packet drops: not addressed to us, count"
scalar WiredAndWirelessHostsWithAP.wirelessHost[1].wlan[0].mac.dcf packetDropNotAddressedToUs:sum(packetBytes) 622772
attr interpolationmode none
attr source packetDropReasonIsNotAddressedToUs(packetDropped)
attr title "packet drops: not addressed to us, sum(packetBytes)"
scalar WiredAndWirelessHostsWithAP.wirelessHost[1].wlan[0].mac.dcf packetDropQueueOverflow:count 0
attr interpolationmode none
attr source packetDropReasonIsQueueOverflow(packetDropped)
attr title "packet drops: queue overflow, count"
scalar WiredAndWirelessHostsWithAP.wirelessHost[1].wlan[0].mac.dcf packetDropQueueOverflow:sum(packetBytes) 0
attr interpolationmode none
attr source packetDropReasonIsQueueOverflow(packetDropped)
attr title "packet drops: queue overflow, sum(packetBytes)"
scalar WiredAndWirelessHostsWithAP.wirelessHost[1].wlan[0].mac.dcf packetDropRetryLimitReached:count 0
attr interpolationmode none
attr source packetDropReasonIsRetryLimitReached(packetDropped)
attr title "packet drops: retry limit reached, count"
scalar WiredAndWirelessHostsWithAP.wirelessHost[1].wlan[0].mac.dcf packetDropRetryLimitReached:sum(packetBytes) 0
attr interpolationmode none
attr source packetDropReasonIsRetryLimitReached(packetDropped)
attr title "packet drops: retry limit reached, sum(packetBytes)"
scalar WiredAndWirelessHostsWithAP.wirelessHost[1].wlan[0].mac.dcf linkBroken:count 0
attr interpolationmode none
attr title "link breaks, count"
scalar WiredAndWirelessHostsWithAP.wirelessHost[1].wlan[0].mac packetReceivedFromLower:count 9862
attr interpolationmode none
attr title "packets received from lower layer, count"
scalar WiredAndWirelessHostsWithAP.wirelessHost[1].wlan[0].mac packetReceivedFromLower:sum(packetBytes) 880946
attr interpolationmode none
attr title "packets received from lower layer, sum(packetBytes)"
scalar WiredAndWirelessHostsWithAP.wirelessHost[1].wlan[0].mac packetSentToLower:count 149
attr interpolationmode none
attr title "packets sent to lower layer, count"
scalar WiredAndWirelessHostsWithAP.wirelessHost[1].wlan[0].mac packetSentToLower:sum(packetBytes) 22566
attr interpolationmode none
attr title "packets sent to lower layer, sum(packetBytes)"
scalar WiredAndWirelessHostsWithAP.wirelessHost[1].wlan[0].mac packetReceivedFromUpper:count 41
attr interpolationmode none
attr title "packets received from upper layer, count"
scalar WiredAndWirelessHostsWithAP.wirelessHost[1].wlan[0].mac packetReceivedFromUpper:sum(packetBytes) 5476
attr interpolationmode none
attr title "packets received from upper layer, sum(packetBytes)"
scalar WiredAndWirelessHostsWithAP.wirelessHost[1].wlan[0].mac packetSentToUpper:count 86
attr interpolationmode none
attr title "packets sent to upper layer, count"
scalar WiredAndWirelessHostsWithAP.wirelessHost[1].wlan[0].mac packetSentToUpper:sum(packetBytes) 3114
attr interpolationmode none
attr title "packets sent to upper layer, sum(packetBytes)"
scalar WiredAndWirelessHostsWithAP.wirelessHost[1].wlan[0].mac packetDrop:count 9254
attr interpolationmode none
attr source packetDropped
attr title "packet drops, count"
scalar WiredAndWirelessHostsWithAP.wirelessHost[1].wlan[0].mac packetDrop:sum(packetBytes) 852986
attr interpolationmode none
attr source packetDropped
attr title "packet drops, sum(packetBytes)"
scalar WiredAndWirelessHostsWithAP.wirelessHost[1].wlan[0].mac packetDropIncorrectlyReceived:count 1437
attr interpolationmode none
attr source packetDropReasonIsIncorrectlyReceived(packetDropped)
attr title "packet drops: incorrectly received, count"
scalar WiredAndWirelessHostsWithAP.wirelessHost[1].wlan[0].mac packetDropIncorrectlyReceived:sum(packetBytes) 230214
attr interpolationmode none
attr source packetDropReasonIsIncorrectlyReceived(packetDropped)
attr title "packet drops: incorrectly received, sum(packetBytes)"
scalar WiredAndWirelessHostsWithAP.wirelessHost[1].wlan[0].mac packetDropNotAddressedToUs:count 7817
attr interpolationmode none
attr source packetDropReasonIsNotAddressedToUs(packetDropped)
attr title "packet drops: not addressed to us, count"
scalar WiredAndWirelessHostsWithAP.wirelessHost[1].wlan[0].mac packetDropNotAddressedToUs:sum(packetBytes) 622772
attr interpolationmode none
attr source packetDropReasonIsNotAddressedToUs(packetDropped)
attr title "packet drops: not addressed to us, sum(packetBytes)"
scalar WiredAndWirelessHostsWithAP.wirelessHost[1].wlan[0].mac packetDropQueueOverflow:count 0
attr interpolationmode none
attr source packetDropReasonIsQueueOverflow(packetDropped)
attr title "packet drops: queue overflow, count"
scalar WiredAndWirelessHostsWithAP.wirelessHost[1].wlan[0].mac packetDropQueueOverflow:sum(packetBytes) 0
attr interpolationmode none
attr source packetDropReasonIsQueueOverflow(packetDropped)
attr title "packet drops: queue overflow, sum(packetBytes)"
scalar WiredAndWirelessHostsWithAP.wirelessHost[1].wlan[0].mac packetDropRetryLimitReached:count 0
attr interpolationmode none
attr source packetDropReasonIsRetryLimitReached(packetDropped)
attr title "packet drops: retry limit reached, count"
scalar WiredAndWirelessHostsWithAP.wirelessHost[1].wlan[0].mac packetDropRetryLimitReached:sum(packetBytes) 0
attr interpolationmode none
attr source packetDropReasonIsRetryLimitReached(packetDropped)
attr title "packet drops: retry limit reached, sum(packetBytes)"
scalar WiredAndWirelessHostsWithAP.wirelessHost[1].wlan[0].mac packetDropDuplicateDetected:count 0
attr interpolationmode none
attr source packetDropReasonIsDuplicateDetected(packetDropped)
attr title "packet drops: duplicate detected, count"
scalar WiredAndWirelessHostsWithAP.wirelessHost[1].wlan[0].mac packetDropDuplicateDetected:sum(packetBytes) 0
attr interpolationmode none
attr source packetDropReasonIsDuplicateDetected(packetDropped)
attr title "packet drops: duplicate detected, sum(packetBytes)"
scalar WiredAndWirelessHostsWithAP.wirelessHost[1].wlan[0].mac packetDropOther:count 0
attr interpolationmode none
attr source packetDropReasonIsOther(packetDropped)
attr title "packet drops: other, count"
scalar WiredAndWirelessHostsWithAP.wirelessHost[1].wlan[0].mac packetDropOther:sum(packetBytes) 0
attr interpolationmode none
attr source packetDropReasonIsOther(packetDropped)
attr title "packet drops: other, sum(packetBytes)"
scalar WiredAndWirelessHostsWithAP.wirelessHost[1].wlan[0].mac linkBroken:count 0
attr interpolationmode none
attr title "link breaks, count"
statistic WiredAndWirelessHostsWithAP.wirelessHost[1].wlan[0].radio radioChannel:histogram
field count 4
field mean 0
field stddev 0
field min 0
field max 0
field sum 0
field sqrsum 0
attr interpolationmode sample-hold
attr source radioChannelChanged
attr title "Radio channel, histogram"
bin	-inf	0
bin	-0.5	0
bin	-0.48	0
bin	-0.46	0
bin	-0.44	0
bin	-0.42	0
bin	-0.4	0
bin	-0.38	0
bin	-0.36	0
bin	-0.34	0
bin	-0.32	0
bin	-0.3	0
bin	-0.28	0
bin	-0.26	0
bin	-0.24	0
bin	-0.22	0
bin	-0.2	0
bin	-0.18	0
bin	-0.16	0
bin	-0.14	0
bin	-0.12	0
bin	-0.1	0
bin	-0.08	0
bin	-0.06	0
bin	-0.04	0
bin	-0.02	0
bin	0	4
bin	0.02	0
bin	0.04	0
bin	0.06	0
bin	0.08	0
bin	0.1	0
bin	0.12	0
bin	0.14	0
bin	0.16	0
bin	0.18	0
bin	0.2	0
bin	0.22	0
bin	0.24	0
bin	0.26	0
bin	0.28	0
bin	0.3	0
bin	0.32	0
bin	0.34	0
bin	0.36	0
bin	0.38	0
bin	0.4	0
bin	0.42	0
bin	0.44	0
bin	0.46	0
bin	0.48	0
bin	0.5	0
scalar WiredAndWirelessHostsWithAP.wirelessHost[1].wlan[0].radio radioMode:count 300
attr interpolationmode sample-hold
attr source radioModeChanged
attr title "Radio mode, count"
scalar WiredAndWirelessHostsWithAP.wirelessHost[1].wlan[0].radio receptionState:count 21849
attr interpolationmode sample-hold
attr source receptionStateChanged
attr title "Radio reception state, count"
scalar WiredAndWirelessHostsWithAP.wirelessHost[1].wlan[0].radio transmissionState:count 594
attr interpolationmode sample-hold
attr source transmissionStateChanged
attr title "Radio transmission state, count"
statistic WiredAndWirelessHostsWithAP.wirelessHost[1].wlan[0].radio minSnir:histogram
field count 9862
field mean 16432.764096474
field stddev 64312.231340596
field min 0.0064001187268135
field max 863372.33336387
field sum 162059919.51943
field sqrsum 43448810656119
attr source minimumSnir(packetSentToUpper)
attr title "Min SNIR, histogram"
bin	-inf	0
bin	0	9065
bin	20000	419
bin	40000	83
bin	60000	50
bin	80000	0
bin	100000	98
bin	120000	0
bin	140000	49
bin	160000	0
bin	180000	0
bin	200000	0
bin	220000	0
bin	240000	49
bin	260000	0
bin	280000	0
bin	300000	0
bin	320000	0
bin	340000	0
bin	360000	0
bin	380000	0
bin	400000	0
bin	420000	0
bin	440000	0
bin	460000	0
bin	480000	0
bin	500000	0
bin	520000	0
bin	540000	0
bin	560000	0
bin	580000	0
bin	600000	0
bin	620000	0
bin	640000	0
bin	660000	0
bin	680000	0
bin	700000	0
bin	720000	0
bin	740000	0
bin	760000	0
bin	780000	0
bin	800000	0
bin	820000	0
bin	840000	0
bin	860000	49
bin	880000	0
bin	900000	0
bin	920000	0
bin	940000	0
bin	960000	0
bin	980000	0
bin	1000000	0
bin	1020000	0
bin	1040000	0
bin	1060000	0
bin	1080000	0
statistic WiredAndWirelessHostsWithAP.wirelessHost[1].wlan[0].radio packetErrorRate:histogram
field count 9862
field mean 0.14527255267953
field stddev 0.34881694554771
field min 0
field max 1
field sum 1432.6779145255
field sqrsum 1407.9488094743
attr source packetErrorRate(packetSentToUpper)
attr title "Packet error rate, histogram"
bin	-inf	0
bin	-0.5	0
bin	-0.48	0
bin	-0.46	0
bin	-0.44	0
bin	-0.42	0
bin	-0.4	0
bin	-0.38	0
bin	-0.36	0
bin	-0.34	0
bin	-0.32	0
bin	-0.3	0
bin	-0.28	0
bin	-0.26	0
bin	-0.24	0
bin	-0.22	0
bin	-0.2	0
bin	-0.18	0
bin	-0.16	0
bin	-0.14	0
bin	-0.12	0
bin	-0.1	0
bin	-0.08	0
bin	-0.06	0
bin	-0.04	0
bin	-0.02	0
bin	0	8327
bin	0.02	12
bin	0.04	20
bin	0.06	9
bin	0.08	4
bin	0.1	4
bin	0.12	2
bin	0.14	10
bin	0.16	3
bin	0.18	6
bin	0.2	0
bin	0.22	3
bin	0.24	2
bin	0.26	1
bin	0.28	3
bin	0.3	3
bin	0.32	3
bin	0.34	1
bin	0.36	0
bin	0.38	7
bin	0.4	0
bin	0.42	2
bin	0.44	5
bin	0.46	4
bin	0.48	0
bin	0.5	2
bin	0.52	4
bin	0.54	5
bin	0.56	3
bin	0.58	1
bin	0.6	5
bin	0.62	2
bin	0.64	0
bin	0.66	1
bin	0.68	1
bin	0.7	0
bin	0.72	3
bin	0.74	4
bin	0.76	2
bin	0.78	7
bin	0.8	1
bin	0.82	3
bin	0.84	3
bin	0.86	1
bin	0.88	5
bin	0.9	3
bin	0.92	4
bin	0.94	3
bin	0.96	10
bin	0.98	229
bin	1	1129
bin	1.02	0
statistic WiredAndWirelessHostsWithAP.wirelessHost[1].wlan[0].radio bitErrorRate:histogram
field count 0
field mean -nan
field stddev nan
field min nan
field max nan
field sum 0
field sqrsum 0
attr source bitErrorRate(packetSentToUpper)
attr title "Bit error rate, histogram"
bin	-inf	0
bin	0	0
bin	1	0
statistic WiredAndWirelessHostsWithAP.wirelessHost[1].wlan[0].radio symbolErrorRate:histogram
field count 0
field mean -nan
field stddev nan
field min nan
field max nan
field sum 0
field sqrsum 0
attr source symbolErrorRate(packetSentToUpper)
attr title "Symbol error rate, histogram"
bin	-inf	0
bin	0	0
bin	1	0
scalar WiredAndWirelessHostsWithAP.wirelessHost[1].ipv4.ip packetDropAddressResolutionFailed:count 0
attr interpolationmode none
attr source packetDropReasonIsAddressResolutionFailed(packetDropped)
attr title "packet drop: address resolution failed, count"
scalar WiredAndWirelessHostsWithAP.wirelessHost[1].ipv4.ip packetDropAddressResolutionFailed:sum(packetBytes) 0
attr interpolationmode none
attr source packetDropReasonIsAddressResolutionFailed(packetDropped)
attr title "packet drop: address resolution failed, sum(packetBytes)"
scalar WiredAndWirelessHostsWithAP.wirelessHost[1].ipv4.ip packetDropHopLimitReached:count 0
attr interpolationmode none
attr source packetDropReasonIsHopLimitReached(packetDropped)
attr title "packet drop: hop limit reached, count"
scalar WiredAndWirelessHostsWithAP.wirelessHost[1].ipv4.ip packetDropHopLimitReached:sum(packetBytes) 0
attr interpolationmode none
attr source packetDropReasonIsHopLimitReached(packetDropped)
attr title "packet drop: hop limit reached, sum(packetBytes)"
scalar WiredAndWirelessHostsWithAP.wirelessHost[1].ipv4.ip packetDropForwardingDisabled:count 0
attr interpolationmode none
attr source packetDropReasonIsForwardingDisabled(packetDropped)
attr title "packet drop: forwarding disabled, count"
scalar WiredAndWirelessHostsWithAP.wirelessHost[1].ipv4.ip packetDropForwardingDisabled:sum(packetBytes) 0
attr interpolationmode none
attr source packetDropReasonIsForwardingDisabled(packetDropped)
attr title "packet drop: forwarding disabled, sum(packetBytes)"
scalar WiredAndWirelessHostsWithAP.wirelessHost[1].ipv4.ip packetDropNoInterfaceFound:count 0
attr interpolationmode none
attr source packetDropReasonIsNoInterfaceFound(packetDropped)
attr title "packet drop: no interface found, count"
scalar WiredAndWirelessHostsWithAP.wirelessHost[1].ipv4.ip packetDropNoInterfaceFound:sum(packetBytes) 0
attr interpolationmode none
attr source packetDropReasonIsNoInterfaceFound(packetDropped)
attr title "packet drop: no interface found, sum(packetBytes)"
scalar WiredAndWirelessHostsWithAP.wirelessHost[1].ipv4.ip packetDropNoRouteFound:count 0
attr interpolationmode none
attr source packetDropReasonIsNoRouteFound(packetDropped)
attr title "packet drop: no route found, count"
scalar WiredAndWirelessHostsWithAP.wirelessHost[1].ipv4.ip packetDropNoRouteFound:sum(packetBytes) 0
attr interpolationmode none
attr source packetDropReasonIsNoRouteFound(packetDropped)
attr title "packet drop: no route found, sum(packetBytes)"
scalar WiredAndWirelessHostsWithAP.wirelessHost[1].ipv4.ip packetDropUndefined:count 0
attr interpolationmode none
attr source packetDropReasonIsUndefined(packetDropped)
attr title "packet drop: undefined, count"
scalar WiredAndWirelessHostsWithAP.wirelessHost[1].ipv4.ip packetDropUndefined:sum(packetBytes) 0
attr interpolationmode none
attr source packetDropReasonIsUndefined(packetDropped)
attr title "packet drop: undefined, sum(packetBytes)"
scalar WiredAndWirelessHostsWithAP.wirelessHost[1].ipv4.arp arpResolutionFailed:count 0
attr title "ARP failed resolutions, count"
scalar WiredAndWirelessHostsWithAP.wirelessHost[1].ipv4.arp arpResolutionCompleted:count 1
attr title "ARP completed resolutions, count"
scalar WiredAndWirelessHostsWithAP.wirelessHost[1].ipv4.arp arpResolutionInitiated:count 1
attr title "ARP initiated resolutions, count"
scalar WiredAndWirelessHostsWithAP.wirelessHost[1].ipv4.arp arpReplySent:count 0
attr source arpReplySent
attr title "ARP replies sent, count"
scalar WiredAndWirelessHostsWithAP.wirelessHost[1].ipv4.arp arpReplySent:sum(packetBytes) 0
attr source arpReplySent
attr title "ARP replies sent, sum(packetBytes)"
scalar WiredAndWirelessHostsWithAP.wirelessHost[1].ipv4.arp arpRequestSent:count 1
attr source arpRequestSent
attr title "ARP request sent, count"
scalar WiredAndWirelessHostsWithAP.wirelessHost[1].ipv4.arp arpRequestSent:sum(packetBytes) 28
attr source arpRequestSent
attr title "ARP request sent, sum(packetBytes)"
scalar WiredAndWirelessHostsWithAP.wirelessHost[1].udp packetReceived:count 0
attr interpolationmode none
attr source packetReceived
attr title "packets received, count"
scalar WiredAndWirelessHostsWithAP.wirelessHost[1].udp packetReceived:sum(packetBytes) 0
attr interpolationmode none
attr source packetReceived
attr title "packets received, sum(packetBytes)"
scalar WiredAndWirelessHostsWithAP.wirelessHost[1].udp packetSent:count 40
attr interpolationmode none
attr source packetSent
attr title "packets sent, count"
scalar WiredAndWirelessHostsWithAP.wirelessHost[1].udp packetSent:sum(packetBytes) 4320
attr interpolationmode none
attr source packetSent
attr title "packets sent, sum(packetBytes)"
scalar WiredAndWirelessHostsWithAP.wirelessHost[1].udp passedUpPk:count 0
attr interpolationmode none
attr source packetSentToUpper
attr title "packets passed up, count"
scalar WiredAndWirelessHostsWithAP.wirelessHost[1].udp droppedPkWrongPort:count 0
attr interpolationmode none
attr source packetDropReasonIsNoPortFound(packetDropped)
attr title "packets dropped (wrong port), count"
scalar WiredAndWirelessHostsWithAP.wirelessHost[1].udp droppedPkBadChecksum:count 0
attr interpolationmode none
attr source packetDropReasonIsIncorrectlyReceived(packetDropped)
attr title "packets dropped (checksum error), count"
scalar WiredAndWirelessHostsWithAP.wirelessHost[1].app[0] "packets sent" 40
scalar WiredAndWirelessHostsWithAP.wirelessHost[1].app[0] "packets received" 0
scalar WiredAndWirelessHostsWithAP.wirelessHost[1].app[0] packetReceived:count 0
attr interpolationmode none
attr source packetReceived
attr title "packets received, count"
scalar WiredAndWirelessHostsWithAP.wirelessHost[1].app[0] packetReceived:sum(packetBytes) 0
attr interpolationmode none
attr source packetReceived
attr title "packets received, sum(packetBytes)"
statistic WiredAndWirelessHostsWithAP.wirelessHost[1].app[0] rcvdPkLifetime:stats
field count 0
field mean -nan
field stddev nan
field min nan
field max nan
field sum 0
field sqrsum 0
attr interpolationmode none
attr source dataAge(packetReceived)
attr title "received packet lifetime, stats"
attr unit s
scalar WiredAndWirelessHostsWithAP.wirelessHost[1].app[0] packetSent:count 40
attr interpolationmode none
attr source packetSent
attr title "packets sent, count"
scalar WiredAndWirelessHostsWithAP.wirelessHost[1].app[0] packetSent:sum(packetBytes) 4000
attr interpolationmode none
attr source packetSent
attr title "packets sent, sum(packetBytes)"
scalar WiredAndWirelessHostsWithAP.wirelessHost[2].lo[0].lo rcvdPkFromHl:count 0
attr interpolationmode none
attr source packetReceivedFromUpper
attr title "packets received from higher layer, count"
scalar WiredAndWirelessHostsWithAP.wirelessHost[2].lo[0].lo rcvdPkFromHl:sum(packetBytes) 0
attr interpolationmode none
attr source packetReceivedFromUpper
attr title "packets received from higher layer, sum(packetBytes)"
scalar WiredAndWirelessHostsWithAP.wirelessHost[2].lo[0].lo passedUpPk:count 0
attr interpolationmode none
attr source packetSentToUpper
attr title "packets passed to higher layer, count"
scalar WiredAndWirelessHostsWithAP.wirelessHost[2].lo[0].lo passedUpPk:sum(packetBytes) 0
attr interpolationmode none
attr source packetSentToUpper
attr title "packets passed to higher layer, sum(packetBytes)"
scalar WiredAndWirelessHostsWithAP.wirelessHost[2].wlan[0].agent dropConfirm:count 0
attr title "dropped confirms, count"
scalar WiredAndWirelessHostsWithAP.wirelessHost[2].wlan[0].agent acceptConfirm:count 3
attr title "accepted confirms, count"
scalar WiredAndWirelessHostsWithAP.wirelessHost[2].wlan[0].agent sentRequest:count 3
attr title "sent requests, count"
scalar WiredAndWirelessHostsWithAP.wirelessHost[2].wlan[0].mac.dcf.channelAccess.pendingQueue packetPopped:count 45
attr interpolationmode none
attr title "packet popped, count"
scalar WiredAndWirelessHostsWithAP.wirelessHost[2].wlan[0].mac.dcf.channelAccess.pendingQueue packetPopped:sum(packetBytes) 6760
attr interpolationmode none
attr title "packet popped, sum(packetBytes)"
statistic WiredAndWirelessHostsWithAP.wirelessHost[2].wlan[0].mac.dcf.channelAccess.pendingQueue queueingTime:histogram
field count 45
field mean 6.7396484266667e-05
field stddev 0.00036879398554102
field min 0
field max 0.002463476722
field sum 0.003032841792
field sqrsum 6.188799040052e-06
attr interpolationmode none
attr source queueingTime(packetPopped)
attr title "queueing times, histogram"
attr unit s
bin	-inf	0
bin	0	41
bin	5e-05	0
bin	0.0001	1
bin	0.00015	1
bin	0.0002	0
bin	0.00025	1
bin	0.0003	0
bin	0.00035	0
bin	0.0004	0
bin	0.00045	0
bin	0.0005	0
bin	0.00055	0
bin	0.0006	0
bin	0.00065	0
bin	0.0007	0
bin	0.00075	0
bin	0.0008	0
bin	0.00085	0
bin	0.0009	0
bin	0.00095	0
bin	0.001	0
bin	0.00105	0
bin	0.0011	0
bin	0.00115	0
bin	0.0012	0
bin	0.00125	0
bin	0.0013	0
bin	0.00135	0
bin	0.0014	0
bin	0.00145	0
bin	0.0015	0
bin	0.00155	0
bin	0.0016	0
bin	0.00165	0
bin	0.0017	0
bin	0.00175	0
bin	0.0018	0
bin	0.00185	0
bin	0.0019	0
bin	0.00195	0
bin	0.002	0
bin	0.00205	0
bin	0.0021	0
bin	0.00215	0
bin	0.0022	0
bin	0.00225	0
bin	0.0023	0
bin	0.00235	0
bin	0.0024	0
bin	0.00245	1
bin	0.0025	0
bin	0.00255	0
bin	0.0026	0
bin	0.00265	0
bin	0.0027	0
bin	0.00275	0
bin	0.0028	0
bin	0.00285	0
bin	0.0029	0
bin	0.00295	0
bin	0.003	0
bin	0.00305	0
bin	0.0031	0
scalar WiredAndWirelessHostsWithAP.wirelessHost[2].wlan[0].mac.dcf.channelAccess.pendingQueue queueLength:max 1
attr interpolationmode sample-hold
attr source "count(packetPushed) - count(packetPopped) - count(packetRemoved) - count(packetDropped)"
attr title "queue length, max"
scalar WiredAndWirelessHostsWithAP.wirelessHost[2].wlan[0].mac.dcf.channelAccess.pendingQueue queueLength:timeavg 7.6427657269271e-05
attr interpolationmode sample-hold
attr source "count(packetPushed) - count(packetPopped) - count(packetRemoved) - count(packetDropped)"
attr title "queue length, timeavg"
scalar WiredAndWirelessHostsWithAP.wirelessHost[2].wlan[0].mac.dcf.channelAccess.pendingQueue packetPushed:count 45
attr interpolationmode none
attr title "packet pushed, count"
scalar WiredAndWirelessHostsWithAP.wirelessHost[2].wlan[0].mac.dcf.channelAccess.pendingQueue packetPushed:sum(packetBytes) 6760
attr interpolationmode none
attr title "packet pushed, sum(packetBytes)"
scalar WiredAndWirelessHostsWithAP.wirelessHost[2].wlan[0].mac.dcf.channelAccess.pendingQueue packetDropQueueOverflow:count 0
attr interpolationmode none
attr source packetDropReasonIsQueueOverflow(packetDropped)
attr title "packet drops: queue overflow, count"
scalar WiredAndWirelessHostsWithAP.wirelessHost[2].wlan[0].mac.dcf.channelAccess.pendingQueue packetDropQueueOverflow:sum(packetBytes) 0
attr interpolationmode none
attr source packetDropReasonIsQueueOverflow(packetDropped)
attr title "packet drops: queue overflow, sum(packetBytes)"
scalar WiredAndWirelessHostsWithAP.wirelessHost[2].wlan[0].mac.dcf.channelAccess.pendingQueue packetRemoved:count 0
attr interpolationmode none
attr title "packets removed, count"
scalar WiredAndWirelessHostsWithAP.wirelessHost[2].wlan[0].mac.dcf.channelAccess.pendingQueue packetRemoved:sum(packetBytes) 0
attr interpolationmode none
attr title "packets removed, sum(packetBytes)"
statistic WiredAndWirelessHostsWithAP.wirelessHost[2].wlan[0].mac.dcf.channelAccess.inProgressFrames queueingTime:histogram
field count 44
field mean 0.075752129077727
field stddev 0.050374606959681
field min 3.8e-05
field max 0.154529189385
field sum 3.33309367942
field sqrsum 0.3616057867643
attr interpolationmode none
attr source queueingTime(packetDequeued)
attr title "queueing times, histogram"
bin	-inf	0
bin	0	5
bin	0.002	0
bin	0.004	0
bin	0.006	0
bin	0.008	0
bin	0.01	0
bin	0.012	0
bin	0.014	1
bin	0.016	0
bin	0.018	1
bin	0.02	3
bin	0.022	0
bin	0.024	0
bin	0.026	1
bin	0.028	0
bin	0.03	0
bin	0.032	1
bin	0.034	1
bin	0.036	0
bin	0.038	1
bin	0.04	1
bin	0.042	0
bin	0.044	0
bin	0.046	0
bin	0.048	0
bin	0.05	1
bin	0.052	1
bin	0.054	1
bin	0.056	1
bin	0.058	0
bin	0.06	0
bin	0.062	0
bin	0.064	0
bin	0.066	0
bin	0.068	2
bin	0.07	0
bin	0.072	0
bin	0.074	0
bin	0.076	0
bin	0.078	2
bin	0.08	1
bin	0.082	0
bin	0.084	0
bin	0.086	2
bin	0.088	0
bin	0.09	1
bin	0.092	0
bin	0.094	1
bin	0.096	0
bin	0.098	0
bin	0.1	0
bin	0.102	0
bin	0.104	0
bin	0.106	0
bin	0.108	0
bin	0.11	0
bin	0.112	0
bin	0.114	2
bin	0.116	2
bin	0.118	0
bin	0.12	1
bin	0.122	1
bin	0.124	0
bin	0.126	1
bin	0.128	2
bin	0.13	1
bin	0.132	1
bin	0.134	0
bin	0.136	0
bin	0.138	0
bin	0.14	0
bin	0.142	0
bin	0.144	1
bin	0.146	1
bin	0.148	1
bin	0.15	0
bin	0.152	0
bin	0.154	2
bin	0.156	0
bin	0.158	0
bin	0.16	0
bin	0.162	0
bin	0.164	0
bin	0.166	0
bin	0.168	0
bin	0.17	0
bin	0.172	0
bin	0.174	0
bin	0.176	0
bin	0.178	0
bin	0.18	0
bin	0.182	0
bin	0.184	0
bin	0.186	0
bin	0.188	0
bin	0.19	0
bin	0.192	0
bin	0.194	0
scalar WiredAndWirelessHostsWithAP.wirelessHost[2].wlan[0].mac.dcf.channelAccess.inProgressFrames queueLength:max 1
attr interpolationmode sample-hold
attr source "count(packetEnqueued) - count(packetDequeued)"
attr title "queue length, max"
scalar WiredAndWirelessHostsWithAP.wirelessHost[2].wlan[0].mac.dcf.channelAccess.inProgressFrames queueLength:timeavg 0.08399400919924
attr interpolationmode sample-hold
attr source "count(packetEnqueued) - count(packetDequeued)"
attr title "queue length, timeavg"
scalar WiredAndWirelessHostsWithAP.wirelessHost[2].wlan[0].mac.dcf.channelAccess.contention channelAccessGranted:count 144
attr title "channel access granted, count"
scalar WiredAndWirelessHostsWithAP.wirelessHost[2].wlan[0].mac.dcf.channelAccess.contention stateChanged:count 43300
attr interpolationmode none
attr title "contention state changed, count"
scalar WiredAndWirelessHostsWithAP.wirelessHost[2].wlan[0].mac.dcf.channelAccess channelOwnershipChanged:count 287
attr interpolationmode sample-hold
attr title "channel ownership, count"
scalar WiredAndWirelessHostsWithAP.wirelessHost[2].wlan[0].mac.dcf.originatorMacDataService packetAggregated:count 0
attr title "packets aggregated, count"
scalar WiredAndWirelessHostsWithAP.wirelessHost[2].wlan[0].mac.dcf.originatorMacDataService packetFragmented:count 0
attr title "packets fragmented, count"
scalar WiredAndWirelessHostsWithAP.wirelessHost[2].wlan[0].mac.dcf.recipientMacDataService packetDeaggregated:count 0
attr title "packets deaggregated, count"
scalar WiredAndWirelessHostsWithAP.wirelessHost[2].wlan[0].mac.dcf.recipientMacDataService packetDefragmented:count 561
attr title "packets defragmented, count"
scalar WiredAndWirelessHostsWithAP.wirelessHost[2].wlan[0].mac.dcf.recipientMacDataService packetDropDuplicateDetected:count 0
attr interpolationmode none
attr source packetDropReasonIsDuplicateDetected(packetDropped)
attr title "packet drops: duplicate detected, count"
scalar WiredAndWirelessHostsWithAP.wirelessHost[2].wlan[0].mac.dcf.recipientMacDataService packetDropDuplicateDetected:sum(packetBytes) 0
attr interpolationmode none
attr source packetDropReasonIsDuplicateDetected(packetDropped)
attr title "packet drops: duplicate detected, sum(packetBytes)"
scalar WiredAndWirelessHostsWithAP.wirelessHost[2].wlan[0].mac.dcf.recoveryProcedure retryLimitReached:count 0
attr title "retry limit reached, count"
scalar WiredAndWirelessHostsWithAP.wirelessHost[2].wlan[0].mac.dcf frameSequenceFinished:count 143
attr title "finished frame sequences, count"
statistic WiredAndWirelessHostsWithAP.wirelessHost[2].wlan[0].mac.dcf frameSequenceDuration:histogram
field count 143
[...]
attr interpolationmode none
attr source packetDropReasonIsRetryLimitReached(packetDropped)
attr title "packet drops: retry limit reached, count"
scalar WiredAndWirelessHostsWithAP.accessPoint.wlan[0].mac packetDropRetryLimitReached:sum(packetBytes) 0
attr interpolationmode none
attr source packetDropReasonIsRetryLimitReached(packetDropped)
attr title "packet drops: retry limit reached, sum(packetBytes)"
scalar WiredAndWirelessHostsWithAP.accessPoint.wlan[0].mac packetDropDuplicateDetected:count 0
attr interpolationmode none
attr source packetDropReasonIsDuplicateDetected(packetDropped)
attr title "packet drops: duplicate detected, count"
scalar WiredAndWirelessHostsWithAP.accessPoint.wlan[0].mac packetDropDuplicateDetected:sum(packetBytes) 0
attr interpolationmode none
attr source packetDropReasonIsDuplicateDetected(packetDropped)
attr title "packet drops: duplicate detected, sum(packetBytes)"
scalar WiredAndWirelessHostsWithAP.accessPoint.wlan[0].mac packetDropOther:count 0
attr interpolationmode none
attr source packetDropReasonIsOther(packetDropped)
attr title "packet drops: other, count"
scalar WiredAndWirelessHostsWithAP.accessPoint.wlan[0].mac packetDropOther:sum(packetBytes) 0
attr interpolationmode none
attr source packetDropReasonIsOther(packetDropped)
attr title "packet drops: other, sum(packetBytes)"
scalar WiredAndWirelessHostsWithAP.accessPoint.wlan[0].mac linkBroken:count 0
attr interpolationmode none
attr title "link breaks, count"
statistic WiredAndWirelessHostsWithAP.accessPoint.wlan[0].radio radioChannel:histogram
field count 1
field mean 0
field stddev -nan
field min 0
field max 0
field sum 0
field sqrsum 0
attr interpolationmode sample-hold
attr source radioChannelChanged
attr title "Radio channel, histogram"
bin	-inf	0
bin	-0.5	0
bin	-0.48	0
bin	-0.46	0
bin	-0.44	0
bin	-0.42	0
bin	-0.4	0
bin	-0.38	0
bin	-0.36	0
bin	-0.34	0
bin	-0.32	0
bin	-0.3	0
bin	-0.28	0
bin	-0.26	0
bin	-0.24	0
bin	-0.22	0
bin	-0.2	0
bin	-0.18	0
bin	-0.16	0
bin	-0.14	0
bin	-0.12	0
bin	-0.1	0
bin	-0.08	0
bin	-0.06	0
bin	-0.04	0
bin	-0.02	0
bin	0	1
bin	0.02	0
bin	0.04	0
bin	0.06	0
bin	0.08	0
bin	0.1	0
bin	0.12	0
bin	0.14	0
bin	0.16	0
bin	0.18	0
bin	0.2	0
bin	0.22	0
bin	0.24	0
bin	0.26	0
bin	0.28	0
bin	0.3	0
bin	0.32	0
bin	0.34	0
bin	0.36	0
bin	0.38	0
bin	0.4	0
bin	0.42	0
bin	0.44	0
bin	0.46	0
bin	0.48	0
bin	0.5	0
scalar WiredAndWirelessHostsWithAP.accessPoint.wlan[0].radio radioMode:count 8697
attr interpolationmode sample-hold
attr source radioModeChanged
attr title "Radio mode, count"
scalar WiredAndWirelessHostsWithAP.accessPoint.wlan[0].radio receptionState:count 21848
attr interpolationmode sample-hold
attr source receptionStateChanged
attr title "Radio reception state, count"
scalar WiredAndWirelessHostsWithAP.accessPoint.wlan[0].radio transmissionState:count 17388
attr interpolationmode sample-hold
attr source transmissionStateChanged
attr title "Radio transmission state, count"
statistic WiredAndWirelessHostsWithAP.accessPoint.wlan[0].radio minSnir:histogram
field count 5663
field mean 9184.5576378627
field stddev 14329.621442187
field min 0.036528824927823
field max 87892.706203035
field sum 52012149.903216
field sqrsum 1640332631584.9
attr source minimumSnir(packetSentToUpper)
attr title "Min SNIR, histogram"
bin	-inf	0
bin	0	2018
bin	2000	737
bin	4000	641
bin	6000	297
bin	8000	345
bin	10000	197
bin	12000	245
bin	14000	248
bin	16000	191
bin	18000	0
bin	20000	0
bin	22000	49
bin	24000	94
bin	26000	189
bin	28000	41
bin	30000	134
bin	32000	0
bin	34000	0
bin	36000	45
bin	38000	0
bin	40000	44
bin	42000	0
bin	44000	0
bin	46000	0
bin	48000	0
bin	50000	0
bin	52000	0
bin	54000	0
bin	56000	0
bin	58000	0
bin	60000	0
bin	62000	0
bin	64000	43
bin	66000	0
bin	68000	0
bin	70000	0
bin	72000	37
bin	74000	0
bin	76000	0
bin	78000	0
bin	80000	0
bin	82000	33
bin	84000	0
bin	86000	35
bin	88000	0
bin	90000	0
bin	92000	0
bin	94000	0
bin	96000	0
bin	98000	0
bin	100000	0
bin	102000	0
bin	104000	0
bin	106000	0
bin	108000	0
bin	110000	0
statistic WiredAndWirelessHostsWithAP.accessPoint.wlan[0].radio packetErrorRate:histogram
field count 5663
field mean 0.305103821029
field stddev 0.45765941981974
field min 0
field max 1
field sum 1727.8029384872
field sqrsum 1713.0773209582
attr source packetErrorRate(packetSentToUpper)
attr title "Packet error rate, histogram"
bin	-inf	0
bin	-0.5	0
bin	-0.48	0
bin	-0.46	0
bin	-0.44	0
bin	-0.42	0
bin	-0.4	0
bin	-0.38	0
bin	-0.36	0
bin	-0.34	0
bin	-0.32	0
bin	-0.3	0
bin	-0.28	0
bin	-0.26	0
bin	-0.24	0
bin	-0.22	0
bin	-0.2	0
bin	-0.18	0
bin	-0.16	0
bin	-0.14	0
bin	-0.12	0
bin	-0.1	0
bin	-0.08	0
bin	-0.06	0
bin	-0.04	0
bin	-0.02	0
bin	0	3883
bin	0.02	9
bin	0.04	4
bin	0.06	7
bin	0.08	1
bin	0.1	2
bin	0.12	1
bin	0.14	1
bin	0.16	2
bin	0.18	2
bin	0.2	3
bin	0.22	0
bin	0.24	2
bin	0.26	3
bin	0.28	3
bin	0.3	1
bin	0.32	2
bin	0.34	0
bin	0.36	1
bin	0.38	2
bin	0.4	1
bin	0.42	1
bin	0.44	3
bin	0.46	1
bin	0.48	0
bin	0.5	0
bin	0.52	1
bin	0.54	1
bin	0.56	1
bin	0.58	0
bin	0.6	4
bin	0.62	3
bin	0.64	0
bin	0.66	1
bin	0.68	0
bin	0.7	1
bin	0.72	1
bin	0.74	2
bin	0.76	1
bin	0.78	2
bin	0.8	4
bin	0.82	3
bin	0.84	1
bin	0.86	5
bin	0.88	1
bin	0.9	1
bin	0.92	11
bin	0.94	8
bin	0.96	14
bin	0.98	243
bin	1	1419
bin	1.02	0
statistic WiredAndWirelessHostsWithAP.accessPoint.wlan[0].radio bitErrorRate:histogram
field count 0
field mean -nan
field stddev nan
field min nan
field max nan
field sum 0
field sqrsum 0
attr source bitErrorRate(packetSentToUpper)
attr title "Bit error rate, histogram"
bin	-inf	0
bin	0	0
bin	1	0
statistic WiredAndWirelessHostsWithAP.accessPoint.wlan[0].radio symbolErrorRate:histogram
field count 0
field mean -nan
field stddev nan
field min nan
field max nan
field sum 0
field sqrsum 0
attr source symbolErrorRate(packetSentToUpper)
attr title "Symbol error rate, histogram"
bin	-inf	0
bin	0	0
bin	1	0
scalar WiredAndWirelessHostsWithAP.accessPoint.eth[0].mac.queue packetPopped:count 101
attr interpolationmode none
attr title "packet popped, count"
scalar WiredAndWirelessHostsWithAP.accessPoint.eth[0].mac.queue packetPopped:sum(packetBytes) 6464
attr interpolationmode none
attr title "packet popped, sum(packetBytes)"
statistic WiredAndWirelessHostsWithAP.accessPoint.eth[0].mac.queue queueingTime:histogram
field count 101
field mean 0
field stddev 0
field min 0
field max 0
field sum 0
field sqrsum 0
attr interpolationmode none
attr source queueingTime(packetPopped)
attr title "queueing times, histogram"
attr unit s
bin	-inf	0
bin	-0.5	0
bin	-0.48	0
bin	-0.46	0
bin	-0.44	0
bin	-0.42	0
bin	-0.4	0
bin	-0.38	0
bin	-0.36	0
bin	-0.34	0
bin	-0.32	0
bin	-0.3	0
bin	-0.28	0
bin	-0.26	0
bin	-0.24	0
bin	-0.22	0
bin	-0.2	0
bin	-0.18	0
bin	-0.16	0
bin	-0.14	0
bin	-0.12	0
bin	-0.1	0
bin	-0.08	0
bin	-0.06	0
bin	-0.04	0
bin	-0.02	0
bin	0	101
bin	0.02	0
bin	0.04	0
bin	0.06	0
bin	0.08	0
bin	0.1	0
bin	0.12	0
bin	0.14	0
bin	0.16	0
bin	0.18	0
bin	0.2	0
bin	0.22	0
bin	0.24	0
bin	0.26	0
bin	0.28	0
bin	0.3	0
bin	0.32	0
bin	0.34	0
bin	0.36	0
bin	0.38	0
bin	0.4	0
bin	0.42	0
bin	0.44	0
bin	0.46	0
bin	0.48	0
bin	0.5	0
scalar WiredAndWirelessHostsWithAP.accessPoint.eth[0].mac.queue queueLength:max 1
attr interpolationmode sample-hold
attr source "count(packetPushed) - count(packetPopped) - count(packetRemoved) - count(packetDropped)"
attr title "queue length, max"
scalar WiredAndWirelessHostsWithAP.accessPoint.eth[0].mac.queue queueLength:timeavg 0
attr interpolationmode sample-hold
attr source "count(packetPushed) - count(packetPopped) - count(packetRemoved) - count(packetDropped)"
attr title "queue length, timeavg"
scalar WiredAndWirelessHostsWithAP.accessPoint.eth[0].mac.queue packetPushed:count 101
attr interpolationmode none
attr title "packet pushed, count"
scalar WiredAndWirelessHostsWithAP.accessPoint.eth[0].mac.queue packetPushed:sum(packetBytes) 6464
attr interpolationmode none
attr title "packet pushed, sum(packetBytes)"
scalar WiredAndWirelessHostsWithAP.accessPoint.eth[0].mac.queue packetDropQueueOverflow:count 0
attr interpolationmode none
attr source packetDropReasonIsQueueOverflow(packetDropped)
attr title "packet drops: queue overflow, count"
scalar WiredAndWirelessHostsWithAP.accessPoint.eth[0].mac.queue packetDropQueueOverflow:sum(packetBytes) 0
attr interpolationmode none
attr source packetDropReasonIsQueueOverflow(packetDropped)
attr title "packet drops: queue overflow, sum(packetBytes)"
scalar WiredAndWirelessHostsWithAP.accessPoint.eth[0].mac.queue packetRemoved:count 0
attr interpolationmode none
attr title "packets removed, count"
scalar WiredAndWirelessHostsWithAP.accessPoint.eth[0].mac.queue packetRemoved:sum(packetBytes) 0
attr interpolationmode none
attr title "packets removed, sum(packetBytes)"
scalar WiredAndWirelessHostsWithAP.accessPoint.eth[0].mac "simulated time" 40
scalar WiredAndWirelessHostsWithAP.accessPoint.eth[0].mac full-duplex 1
scalar WiredAndWirelessHostsWithAP.accessPoint.eth[0].mac "frames/sec sent" 2.525
scalar WiredAndWirelessHostsWithAP.accessPoint.eth[0].mac "frames/sec rcvd" 0
scalar WiredAndWirelessHostsWithAP.accessPoint.eth[0].mac "bits/sec sent" 1292.8
scalar WiredAndWirelessHostsWithAP.accessPoint.eth[0].mac "bits/sec rcvd" 0
scalar WiredAndWirelessHostsWithAP.accessPoint.eth[0].mac "rx channel idle (%)" 100
scalar WiredAndWirelessHostsWithAP.accessPoint.eth[0].mac "rx channel utilization (%)" 0
scalar WiredAndWirelessHostsWithAP.accessPoint.eth[0].mac rxPausePkUnits:count 0
attr interpolationmode none
attr title "pause units received, count"
scalar WiredAndWirelessHostsWithAP.accessPoint.eth[0].mac rxPausePkUnits:sum 0
attr interpolationmode none
attr title "pause units received, sum"
scalar WiredAndWirelessHostsWithAP.accessPoint.eth[0].mac txPausePkUnits:count 0
attr interpolationmode none
attr title "pause units sent, count"
scalar WiredAndWirelessHostsWithAP.accessPoint.eth[0].mac txPausePkUnits:sum 0
attr interpolationmode none
attr title "pause units sent, sum"
scalar WiredAndWirelessHostsWithAP.accessPoint.eth[0].mac rxPkOk:count 0
attr interpolationmode none
attr source rxPkOk
attr title "packets received OK, count"
scalar WiredAndWirelessHostsWithAP.accessPoint.eth[0].mac rxPkOk:sum(packetBytes) 0
attr interpolationmode none
attr source rxPkOk
attr title "packets received OK, sum(packetBytes)"
scalar WiredAndWirelessHostsWithAP.accessPoint.eth[0].mac txPk:count 101
attr interpolationmode none
attr source packetSentToLower
attr title "packets transmitted, count"
scalar WiredAndWirelessHostsWithAP.accessPoint.eth[0].mac txPk:sum(packetBytes) 6464
attr interpolationmode none
attr source packetSentToLower
attr title "packets transmitted, sum(packetBytes)"
scalar WiredAndWirelessHostsWithAP.accessPoint.eth[0].mac packetReceivedFromUpper:count 101
attr interpolationmode none
attr source packetReceivedFromUpper
attr title "packet bytes from higher layer, count"
scalar WiredAndWirelessHostsWithAP.accessPoint.eth[0].mac packetReceivedFromUpper:sum(packetBytes) 4646
attr interpolationmode none
attr source packetReceivedFromUpper
attr title "packet bytes from higher layer, sum(packetBytes)"
scalar WiredAndWirelessHostsWithAP.accessPoint.eth[0].mac passedUpPk:count 0
attr interpolationmode none
attr source packetSentToUpper
attr title "packets passed to higher layer, count"
scalar WiredAndWirelessHostsWithAP.accessPoint.eth[0].mac passedUpPk:sum(packetBytes) 0
attr interpolationmode none
attr source packetSentToUpper
attr title "packets passed to higher layer, sum(packetBytes)"
scalar WiredAndWirelessHostsWithAP.accessPoint.eth[0].mac packetDropIncorrectlyReceived:count 0
attr interpolationmode none
attr source packetDropReasonIsIncorrectlyReceived(packetDropped)
attr title "packet drop: incorrectly received, count"
scalar WiredAndWirelessHostsWithAP.accessPoint.eth[0].mac packetDropIncorrectlyReceived:sum(packetBytes) 0
attr interpolationmode none
attr source packetDropReasonIsIncorrectlyReceived(packetDropped)
attr title "packet drop: incorrectly received, sum(packetBytes)"
scalar WiredAndWirelessHostsWithAP.accessPoint.eth[0].mac packetDropInterfaceDown:count 0
attr interpolationmode none
attr source packetDropReasonIsInterfaceDown(packetDropped)
attr title "packet drop: interface down, count"
scalar WiredAndWirelessHostsWithAP.accessPoint.eth[0].mac packetDropInterfaceDown:sum(packetBytes) 0
attr interpolationmode none
attr source packetDropReasonIsInterfaceDown(packetDropped)
attr title "packet drop: interface down, sum(packetBytes)"
scalar WiredAndWirelessHostsWithAP.accessPoint.eth[0].mac packetDropNotAddressedToUs:count 0
attr interpolationmode none
attr source packetDropReasonIsNotAddressedToUs(packetDropped)
attr title "packet drop: not addressed to us, count"
scalar WiredAndWirelessHostsWithAP.accessPoint.eth[0].mac packetDropNotAddressedToUs:sum(packetBytes) 0
attr interpolationmode none
attr source packetDropReasonIsNotAddressedToUs(packetDropped)
attr title "packet drop: not addressed to us, sum(packetBytes)"
scalar WiredAndWirelessHostsWithAP.accessPoint.eth[1].mac.queue packetPopped:count 3221
attr interpolationmode none
attr title "packet popped, count"
scalar WiredAndWirelessHostsWithAP.accessPoint.eth[1].mac.queue packetPopped:sum(packetBytes) 461984
attr interpolationmode none
attr title "packet popped, sum(packetBytes)"
statistic WiredAndWirelessHostsWithAP.accessPoint.eth[1].mac.queue queueingTime:histogram
field count 3221
field mean 0
field stddev 0
field min 0
field max 0
field sum 0
field sqrsum 0
attr interpolationmode none
attr source queueingTime(packetPopped)
attr title "queueing times, histogram"
attr unit s
bin	-inf	0
bin	-0.5	0
bin	-0.48	0
bin	-0.46	0
bin	-0.44	0
bin	-0.42	0
bin	-0.4	0
bin	-0.38	0
bin	-0.36	0
bin	-0.34	0
bin	-0.32	0
bin	-0.3	0
bin	-0.28	0
bin	-0.26	0
bin	-0.24	0
bin	-0.22	0
bin	-0.2	0
bin	-0.18	0
bin	-0.16	0
bin	-0.14	0
bin	-0.12	0
bin	-0.1	0
bin	-0.08	0
bin	-0.06	0
bin	-0.04	0
bin	-0.02	0
bin	0	3221
bin	0.02	0
bin	0.04	0
bin	0.06	0
bin	0.08	0
bin	0.1	0
bin	0.12	0
bin	0.14	0
bin	0.16	0
bin	0.18	0
bin	0.2	0
bin	0.22	0
bin	0.24	0
bin	0.26	0
bin	0.28	0
bin	0.3	0
bin	0.32	0
bin	0.34	0
bin	0.36	0
bin	0.38	0
bin	0.4	0
bin	0.42	0
bin	0.44	0
bin	0.46	0
bin	0.48	0
bin	0.5	0
scalar WiredAndWirelessHostsWithAP.accessPoint.eth[1].mac.queue queueLength:max 1
attr interpolationmode sample-hold
attr source "count(packetPushed) - count(packetPopped) - count(packetRemoved) - count(packetDropped)"
attr title "queue length, max"
scalar WiredAndWirelessHostsWithAP.accessPoint.eth[1].mac.queue queueLength:timeavg 0
attr interpolationmode sample-hold
attr source "count(packetPushed) - count(packetPopped) - count(packetRemoved) - count(packetDropped)"
attr title "queue length, timeavg"
scalar WiredAndWirelessHostsWithAP.accessPoint.eth[1].mac.queue packetPushed:count 3221
attr interpolationmode none
attr title "packet pushed, count"
scalar WiredAndWirelessHostsWithAP.accessPoint.eth[1].mac.queue packetPushed:sum(packetBytes) 461984
attr interpolationmode none
attr title "packet pushed, sum(packetBytes)"
scalar WiredAndWirelessHostsWithAP.accessPoint.eth[1].mac.queue packetDropQueueOverflow:count 0
attr interpolationmode none
attr source packetDropReasonIsQueueOverflow(packetDropped)
attr title "packet drops: queue overflow, count"
scalar WiredAndWirelessHostsWithAP.accessPoint.eth[1].mac.queue packetDropQueueOverflow:sum(packetBytes) 0
attr interpolationmode none
attr source packetDropReasonIsQueueOverflow(packetDropped)
attr title "packet drops: queue overflow, sum(packetBytes)"
scalar WiredAndWirelessHostsWithAP.accessPoint.eth[1].mac.queue packetRemoved:count 0
attr interpolationmode none
attr title "packets removed, count"
scalar WiredAndWirelessHostsWithAP.accessPoint.eth[1].mac.queue packetRemoved:sum(packetBytes) 0
attr interpolationmode none
attr title "packets removed, sum(packetBytes)"
scalar WiredAndWirelessHostsWithAP.accessPoint.eth[1].mac "simulated time" 40
scalar WiredAndWirelessHostsWithAP.accessPoint.eth[1].mac full-duplex 1
scalar WiredAndWirelessHostsWithAP.accessPoint.eth[1].mac "frames/sec sent" 80.525
scalar WiredAndWirelessHostsWithAP.accessPoint.eth[1].mac "frames/sec rcvd" 2.525
scalar WiredAndWirelessHostsWithAP.accessPoint.eth[1].mac "bits/sec sent" 92396.8
scalar WiredAndWirelessHostsWithAP.accessPoint.eth[1].mac "bits/sec rcvd" 1292.8
scalar WiredAndWirelessHostsWithAP.accessPoint.eth[1].mac "rx channel idle (%)" 100
scalar WiredAndWirelessHostsWithAP.accessPoint.eth[1].mac "rx channel utilization (%)" 0
scalar WiredAndWirelessHostsWithAP.accessPoint.eth[1].mac rxPausePkUnits:count 0
attr interpolationmode none
attr title "pause units received, count"
scalar WiredAndWirelessHostsWithAP.accessPoint.eth[1].mac rxPausePkUnits:sum 0
attr interpolationmode none
attr title "pause units received, sum"
scalar WiredAndWirelessHostsWithAP.accessPoint.eth[1].mac txPausePkUnits:count 0
attr interpolationmode none
attr title "pause units sent, count"
scalar WiredAndWirelessHostsWithAP.accessPoint.eth[1].mac txPausePkUnits:sum 0
attr interpolationmode none
attr title "pause units sent, sum"
scalar WiredAndWirelessHostsWithAP.accessPoint.eth[1].mac rxPkOk:count 101
attr interpolationmode none
attr source rxPkOk
attr title "packets received OK, count"
scalar WiredAndWirelessHostsWithAP.accessPoint.eth[1].mac rxPkOk:sum(packetBytes) 6464
attr interpolationmode none
attr source rxPkOk
attr title "packets received OK, sum(packetBytes)"
scalar WiredAndWirelessHostsWithAP.accessPoint.eth[1].mac txPk:count 3221
attr interpolationmode none
attr source packetSentToLower
attr title "packets transmitted, count"
scalar WiredAndWirelessHostsWithAP.accessPoint.eth[1].mac txPk:sum(packetBytes) 461984
attr interpolationmode none
attr source packetSentToLower
attr title "packets transmitted, sum(packetBytes)"
scalar WiredAndWirelessHostsWithAP.accessPoint.eth[1].mac packetReceivedFromUpper:count 3221
attr interpolationmode none
attr source packetReceivedFromUpper
attr title "packet bytes from higher layer, count"
scalar WiredAndWirelessHostsWithAP.accessPoint.eth[1].mac packetReceivedFromUpper:sum(packetBytes) 460166
attr interpolationmode none
attr source packetReceivedFromUpper
attr title "packet bytes from higher layer, sum(packetBytes)"
scalar WiredAndWirelessHostsWithAP.accessPoint.eth[1].mac passedUpPk:count 101
attr interpolationmode none
attr source packetSentToUpper
attr title "packets passed to higher layer, count"
scalar WiredAndWirelessHostsWithAP.accessPoint.eth[1].mac passedUpPk:sum(packetBytes) 6464
attr interpolationmode none
attr source packetSentToUpper
attr title "packets passed to higher layer, sum(packetBytes)"
scalar WiredAndWirelessHostsWithAP.accessPoint.eth[1].mac packetDropIncorrectlyReceived:count 0
attr interpolationmode none
attr source packetDropReasonIsIncorrectlyReceived(packetDropped)
attr title "packet drop: incorrectly received, count"
scalar WiredAndWirelessHostsWithAP.accessPoint.eth[1].mac packetDropIncorrectlyReceived:sum(packetBytes) 0
attr interpolationmode none
attr source packetDropReasonIsIncorrectlyReceived(packetDropped)
attr title "packet drop: incorrectly received, sum(packetBytes)"
scalar WiredAndWirelessHostsWithAP.accessPoint.eth[1].mac packetDropInterfaceDown:count 0
attr interpolationmode none
attr source packetDropReasonIsInterfaceDown(packetDropped)
attr title "packet drop: interface down, count"
scalar WiredAndWirelessHostsWithAP.accessPoint.eth[1].mac packetDropInterfaceDown:sum(packetBytes) 0
attr interpolationmode none
attr source packetDropReasonIsInterfaceDown(packetDropped)
attr title "packet drop: interface down, sum(packetBytes)"
scalar WiredAndWirelessHostsWithAP.accessPoint.eth[1].mac packetDropNotAddressedToUs:count 0
attr interpolationmode none
attr source packetDropReasonIsNotAddressedToUs(packetDropped)
attr title "packet drop: not addressed to us, count"
scalar WiredAndWirelessHostsWithAP.accessPoint.eth[1].mac packetDropNotAddressedToUs:sum(packetBytes) 0
attr interpolationmode none
attr source packetDropReasonIsNotAddressedToUs(packetDropped)
attr title "packet drop: not addressed to us, sum(packetBytes)"

