version 2
run WithBeaconing-0-20251015-17:22:56-5021
attr configname WithBeaconing
attr datetime 20251015-17:22:56
attr experiment WithBeaconing
attr inifile omnetpp.ini
attr iterationvars ""
attr iterationvarsf ""
attr measurement ""
attr network RSUExampleScenario
attr processid 5021
attr repetition 0
attr replication #0
attr resultdir results
attr runnumber 0
attr seedset 210041226
param *.node[*].appl.sendBeacons true
param *.playgroundSizeX 1700m
param *.playgroundSizeY 1700m
param *.playgroundSizeZ 50m
param *.annotations.draw true
param *.manager.updateInterval 0.1s
param *.manager.host "\"localhost\""
param *.manager.port 9999
param *.manager.autoShutdown true
param *.manager.launchConfig "xmldoc(\"simulation_freeway.launchd.xml\")"
param *.connectionManager.sendDirect true
param *.connectionManager.maxInterfDist 2600m
param *.connectionManager.drawMaxIntfDist false
param *.**.nic.mac1609_4.useServiceChannel false
param *.**.nic.mac1609_4.txPower 20mW
param *.**.nic.mac1609_4.bitrate 6Mbps
param *.**.nic.phy80211p.minPowerLevel -110dBm
param *.**.nic.phy80211p.useNoiseFloor true
param *.**.nic.phy80211p.noiseFloor -98dBm
param *.**.nic.phy80211p.decider "xmldoc(\"config.xml\")"
param *.**.nic.phy80211p.analogueModels "xmldoc(\"config.xml\")"
param *.**.nic.phy80211p.usePropagationDelay true
param *.**.nic.phy80211p.antenna "xmldoc(\"antenna.xml\", \"/root/Antenna[@id='monopole']\")"
param *.node[*].nic.phy80211p.antennaOffsetY "0 m"
param *.node[*].nic.phy80211p.antennaOffsetZ "1.895 m"
param *.node[*].applType "\"TraCIDemo11p\""
param *.node[*].appl.headerLength "80 bit"
param *.node[*].appl.sendBeacons false
param *.node[*].appl.dataOnSch false
param *.node[*].appl.beaconInterval 0.1s
param **.node[*].appl.dataUserPriority 5
param **.node[*].appl.beaconUserPriority 7
param *.node[*].veinsmobility.x 0
param *.node[*].veinsmobility.y 0
param *.node[*].veinsmobility.z 0
param *.node[*].veinsmobility.setHostSpeed false

scalar RSUExampleScenario.node[0].appl generatedWSMs 0
scalar RSUExampleScenario.node[0].appl receivedWSMs 0
scalar RSUExampleScenario.node[0].appl generatedBSMs 897
scalar RSUExampleScenario.node[0].appl receivedBSMs 36298
scalar RSUExampleScenario.node[0].appl generatedWSAs 0
scalar RSUExampleScenario.node[0].appl receivedWSAs 0
scalar RSUExampleScenario.node[0].nic.phy80211p busyTime 0.052097391304357
scalar RSUExampleScenario.node[0].nic.mac1609_4 ReceivedUnicastPackets 0
scalar RSUExampleScenario.node[0].nic.mac1609_4 ReceivedBroadcasts 36298
scalar RSUExampleScenario.node[0].nic.mac1609_4 SentPackets 897
scalar RSUExampleScenario.node[0].nic.mac1609_4 SentAcknowledgements 0
scalar RSUExampleScenario.node[0].nic.mac1609_4 RetriesExceeded 0
scalar RSUExampleScenario.node[0].nic.mac1609_4 SNIRLostPackets 8636
scalar RSUExampleScenario.node[0].nic.mac1609_4 RXTXLostPackets 0
scalar RSUExampleScenario.node[0].nic.mac1609_4 TotalLostPackets 8636
scalar RSUExampleScenario.node[0].nic.mac1609_4 DroppedPacketsInMac 0
scalar RSUExampleScenario.node[0].nic.mac1609_4 TooLittleTime 0
scalar RSUExampleScenario.node[0].nic.mac1609_4 TimesIntoBackoff 897
scalar RSUExampleScenario.node[0].nic.mac1609_4 SlotsBackoff 1344
scalar RSUExampleScenario.node[0].nic.mac1609_4 NumInternalContention 0
scalar RSUExampleScenario.node[0].nic.mac1609_4 totalBusyTime 4.739865
scalar RSUExampleScenario.node[0].nic.mac1609_4 retriesExceeded:count 0
attr source org_car2x_veins_modules_mac_sigRetriesExceeded
scalar RSUExampleScenario.node[0].nic.mac1609_4 sentAcks:count 0
attr source org_car2x_veins_modules_mac_sigSentAck
scalar RSUExampleScenario.node[0].nic.mac1609_4 sentPackets:count 897
attr source org_car2x_veins_modules_mac_sigSentPacket
scalar RSUExampleScenario.node[0].nic.mac1609_4 collisions:count 0
attr source org_car2x_veins_modules_mac_sigCollision
scalar RSUExampleScenario.node[0].nic.mac1609_4 channelBusy:timeavg 0.052841304347837
attr source org_car2x_veins_modules_mac_sigChannelBusy
scalar RSUExampleScenario.node[0].veinsmobility startTime 0.1
scalar RSUExampleScenario.node[0].veinsmobility totalTime 89.6
scalar RSUExampleScenario.node[0].veinsmobility stopTime 89.8
scalar RSUExampleScenario.node[0].veinsmobility minSpeed 11.038163481036
scalar RSUExampleScenario.node[0].veinsmobility maxSpeed 11.163075066771
scalar RSUExampleScenario.node[0].veinsmobility totalDistance 994.63125116698
scalar RSUExampleScenario.node[0].veinsmobility totalCO2Emission 179.67377412029
scalar RSUExampleScenario.node[1].appl generatedWSMs 0
scalar RSUExampleScenario.node[1].appl receivedWSMs 0
scalar RSUExampleScenario.node[1].appl generatedBSMs 955
scalar RSUExampleScenario.node[1].appl receivedBSMs 41161
scalar RSUExampleScenario.node[1].appl generatedWSAs 0
scalar RSUExampleScenario.node[1].appl receivedWSAs 0
scalar RSUExampleScenario.node[1].nic.phy80211p busyTime 0.054986052356048
scalar RSUExampleScenario.node[1].nic.mac1609_4 ReceivedUnicastPackets 0
scalar RSUExampleScenario.node[1].nic.mac1609_4 ReceivedBroadcasts 41161
scalar RSUExampleScenario.node[1].nic.mac1609_4 SentPackets 955
scalar RSUExampleScenario.node[1].nic.mac1609_4 SentAcknowledgements 0
scalar RSUExampleScenario.node[1].nic.mac1609_4 RetriesExceeded 0
scalar RSUExampleScenario.node[1].nic.mac1609_4 SNIRLostPackets 9331
scalar RSUExampleScenario.node[1].nic.mac1609_4 RXTXLostPackets 0
scalar RSUExampleScenario.node[1].nic.mac1609_4 TotalLostPackets 9331
scalar RSUExampleScenario.node[1].nic.mac1609_4 DroppedPacketsInMac 0
scalar RSUExampleScenario.node[1].nic.mac1609_4 TooLittleTime 0
scalar RSUExampleScenario.node[1].nic.mac1609_4 TimesIntoBackoff 955
scalar RSUExampleScenario.node[1].nic.mac1609_4 SlotsBackoff 1451
scalar RSUExampleScenario.node[1].nic.mac1609_4 NumInternalContention 0
scalar RSUExampleScenario.node[1].nic.mac1609_4 totalBusyTime 5.317227365453
scalar RSUExampleScenario.node[1].nic.mac1609_4 retriesExceeded:count 0
attr source org_car2x_veins_modules_mac_sigRetriesExceeded
scalar RSUExampleScenario.node[1].nic.mac1609_4 sentAcks:count 0
attr source org_car2x_veins_modules_mac_sigSentAck
scalar RSUExampleScenario.node[1].nic.mac1609_4 sentPackets:count 955
attr source org_car2x_veins_modules_mac_sigSentPacket
scalar RSUExampleScenario.node[1].nic.mac1609_4 collisions:count 0
attr source org_car2x_veins_modules_mac_sigCollision
scalar RSUExampleScenario.node[1].nic.mac1609_4 channelBusy:timeavg 0.055677773460269
attr source org_car2x_veins_modules_mac_sigChannelBusy
scalar RSUExampleScenario.node[1].veinsmobility startTime 0.1
scalar RSUExampleScenario.node[1].veinsmobility totalTime 95.4
scalar RSUExampleScenario.node[1].veinsmobility stopTime 95.6
scalar RSUExampleScenario.node[1].veinsmobility minSpeed 10.358844601597
scalar RSUExampleScenario.node[1].veinsmobility maxSpeed 10.483551112401
scalar RSUExampleScenario.node[1].veinsmobility totalDistance 994.14782061003
scalar RSUExampleScenario.node[1].veinsmobility totalCO2Emission 184.0014900893
scalar RSUExampleScenario.node[3].appl generatedWSMs 0
scalar RSUExampleScenario.node[3].appl receivedWSMs 0
scalar RSUExampleScenario.node[3].appl generatedBSMs 979
scalar RSUExampleScenario.node[3].appl receivedBSMs 43802
scalar RSUExampleScenario.node[3].appl generatedWSAs 0
scalar RSUExampleScenario.node[3].appl receivedWSAs 0
scalar RSUExampleScenario.node[3].nic.phy80211p busyTime 0.056999223697688
scalar RSUExampleScenario.node[3].nic.mac1609_4 ReceivedUnicastPackets 0
scalar RSUExampleScenario.node[3].nic.mac1609_4 ReceivedBroadcasts 43802
scalar RSUExampleScenario.node[3].nic.mac1609_4 SentPackets 979
scalar RSUExampleScenario.node[3].nic.mac1609_4 SentAcknowledgements 0
scalar RSUExampleScenario.node[3].nic.mac1609_4 RetriesExceeded 0
scalar RSUExampleScenario.node[3].nic.mac1609_4 SNIRLostPackets 9854
scalar RSUExampleScenario.node[3].nic.mac1609_4 RXTXLostPackets 0
scalar RSUExampleScenario.node[3].nic.mac1609_4 TotalLostPackets 9854
scalar RSUExampleScenario.node[3].nic.mac1609_4 DroppedPacketsInMac 0
scalar RSUExampleScenario.node[3].nic.mac1609_4 TooLittleTime 0
scalar RSUExampleScenario.node[3].nic.mac1609_4 TimesIntoBackoff 979
scalar RSUExampleScenario.node[3].nic.mac1609_4 SlotsBackoff 1483
scalar RSUExampleScenario.node[3].nic.mac1609_4 NumInternalContention 0
scalar RSUExampleScenario.node[3].nic.mac1609_4 totalBusyTime 5.645787530057
scalar RSUExampleScenario.node[3].nic.mac1609_4 retriesExceeded:count 0
attr source org_car2x_veins_modules_mac_sigRetriesExceeded
scalar RSUExampleScenario.node[3].nic.mac1609_4 sentAcks:count 0
attr source org_car2x_veins_modules_mac_sigSentAck
scalar RSUExampleScenario.node[3].nic.mac1609_4 sentPackets:count 979
attr source org_car2x_veins_modules_mac_sigSentPacket
scalar RSUExampleScenario.node[3].nic.mac1609_4 collisions:count 0
attr source org_car2x_veins_modules_mac_sigCollision
scalar RSUExampleScenario.node[3].nic.mac1609_4 channelBusy:timeavg 0.057668922676821
attr source org_car2x_veins_modules_mac_sigChannelBusy
scalar RSUExampleScenario.node[3].veinsmobility startTime 0.9
scalar RSUExampleScenario.node[3].veinsmobility totalTime 97.8
scalar RSUExampleScenario.node[3].veinsmobility stopTime 98.8
scalar RSUExampleScenario.node[3].veinsmobility minSpeed 7.9796026584459
scalar RSUExampleScenario.node[3].veinsmobility maxSpeed 10.299318647461
scalar RSUExampleScenario.node[3].veinsmobility totalDistance 994.09375989371
scalar RSUExampleScenario.node[3].veinsmobility totalCO2Emission 192.47723146527
scalar RSUExampleScenario.node[2].appl generatedWSMs 0
scalar RSUExampleScenario.node[2].appl receivedWSMs 0
scalar RSUExampleScenario.node[2].appl generatedBSMs 989
scalar RSUExampleScenario.node[2].appl receivedBSMs 44076
scalar RSUExampleScenario.node[2].appl generatedWSAs 0
scalar RSUExampleScenario.node[2].appl receivedWSAs 0
scalar RSUExampleScenario.node[2].nic.phy80211p busyTime 0.05734196157739
scalar RSUExampleScenario.node[2].nic.mac1609_4 ReceivedUnicastPackets 0
scalar RSUExampleScenario.node[2].nic.mac1609_4 ReceivedBroadcasts 44076
scalar RSUExampleScenario.node[2].nic.mac1609_4 SentPackets 989
scalar RSUExampleScenario.node[2].nic.mac1609_4 SentAcknowledgements 0
scalar RSUExampleScenario.node[2].nic.mac1609_4 RetriesExceeded 0
scalar RSUExampleScenario.node[2].nic.mac1609_4 SNIRLostPackets 10454
scalar RSUExampleScenario.node[2].nic.mac1609_4 RXTXLostPackets 28
scalar RSUExampleScenario.node[2].nic.mac1609_4 TotalLostPackets 10482
scalar RSUExampleScenario.node[2].nic.mac1609_4 DroppedPacketsInMac 0
scalar RSUExampleScenario.node[2].nic.mac1609_4 TooLittleTime 0
scalar RSUExampleScenario.node[2].nic.mac1609_4 TimesIntoBackoff 989
scalar RSUExampleScenario.node[2].nic.mac1609_4 SlotsBackoff 1450
scalar RSUExampleScenario.node[2].nic.mac1609_4 NumInternalContention 0
scalar RSUExampleScenario.node[2].nic.mac1609_4 totalBusyTime 5.739189
scalar RSUExampleScenario.node[2].nic.mac1609_4 retriesExceeded:count 0
attr source org_car2x_veins_modules_mac_sigRetriesExceeded
scalar RSUExampleScenario.node[2].nic.mac1609_4 sentAcks:count 0
attr source org_car2x_veins_modules_mac_sigSentAck
scalar RSUExampleScenario.node[2].nic.mac1609_4 sentPackets:count 989
attr source org_car2x_veins_modules_mac_sigSentPacket
scalar RSUExampleScenario.node[2].nic.mac1609_4 collisions:count 0
attr source org_car2x_veins_modules_mac_sigCollision
scalar RSUExampleScenario.node[2].nic.mac1609_4 channelBusy:timeavg 0.058030222446957
attr source org_car2x_veins_modules_mac_sigChannelBusy
scalar RSUExampleScenario.node[2].veinsmobility startTime 0.8
scalar RSUExampleScenario.node[2].veinsmobility totalTime 98.8
scalar RSUExampleScenario.node[2].veinsmobility stopTime 99.7
scalar RSUExampleScenario.node[2].veinsmobility minSpeed 8.4899056745048
scalar RSUExampleScenario.node[2].veinsmobility maxSpeed 10.153009940596
scalar RSUExampleScenario.node[2].veinsmobility totalDistance 994.18774495079
scalar RSUExampleScenario.node[2].veinsmobility totalCO2Emission 192.31756641429
scalar RSUExampleScenario.node[4].appl generatedWSMs 0
scalar RSUExampleScenario.node[4].appl receivedWSMs 0
scalar RSUExampleScenario.node[4].appl generatedBSMs 996
scalar RSUExampleScenario.node[4].appl receivedBSMs 45379
scalar RSUExampleScenario.node[4].appl generatedWSAs 0
scalar RSUExampleScenario.node[4].appl receivedWSAs 0
scalar RSUExampleScenario.node[4].nic.phy80211p busyTime 0.058617991967916
scalar RSUExampleScenario.node[4].nic.mac1609_4 ReceivedUnicastPackets 0
scalar RSUExampleScenario.node[4].nic.mac1609_4 ReceivedBroadcasts 45379
scalar RSUExampleScenario.node[4].nic.mac1609_4 SentPackets 996
scalar RSUExampleScenario.node[4].nic.mac1609_4 SentAcknowledgements 0
scalar RSUExampleScenario.node[4].nic.mac1609_4 RetriesExceeded 0
scalar RSUExampleScenario.node[4].nic.mac1609_4 SNIRLostPackets 10759
scalar RSUExampleScenario.node[4].nic.mac1609_4 RXTXLostPackets 0
scalar RSUExampleScenario.node[4].nic.mac1609_4 TotalLostPackets 10759
scalar RSUExampleScenario.node[4].nic.mac1609_4 DroppedPacketsInMac 0
scalar RSUExampleScenario.node[4].nic.mac1609_4 TooLittleTime 0
scalar RSUExampleScenario.node[4].nic.mac1609_4 TimesIntoBackoff 996
scalar RSUExampleScenario.node[4].nic.mac1609_4 SlotsBackoff 1535
scalar RSUExampleScenario.node[4].nic.mac1609_4 NumInternalContention 0
scalar RSUExampleScenario.node[4].nic.mac1609_4 totalBusyTime 5.901644
scalar RSUExampleScenario.node[4].nic.mac1609_4 retriesExceeded:count 0
attr source org_car2x_veins_modules_mac_sigRetriesExceeded
scalar RSUExampleScenario.node[4].nic.mac1609_4 sentAcks:count 0
attr source org_car2x_veins_modules_mac_sigSentAck
scalar RSUExampleScenario.node[4].nic.mac1609_4 sentPackets:count 996
attr source org_car2x_veins_modules_mac_sigSentPacket
scalar RSUExampleScenario.node[4].nic.mac1609_4 collisions:count 0
attr source org_car2x_veins_modules_mac_sigCollision
scalar RSUExampleScenario.node[4].nic.mac1609_4 channelBusy:timeavg 0.059253453815306
attr source org_car2x_veins_modules_mac_sigChannelBusy
scalar RSUExampleScenario.node[4].veinsmobility startTime 1.7
scalar RSUExampleScenario.node[4].veinsmobility totalTime 99.5
scalar RSUExampleScenario.node[4].veinsmobility stopTime 101.3
scalar RSUExampleScenario.node[4].veinsmobility minSpeed 6.4680640063252
scalar RSUExampleScenario.node[4].veinsmobility maxSpeed 11.556228835487
scalar RSUExampleScenario.node[4].veinsmobility totalDistance 994.12203688362
scalar RSUExampleScenario.node[4].veinsmobility totalCO2Emission 209.6581557429
scalar RSUExampleScenario.node[5].appl generatedWSMs 0
scalar RSUExampleScenario.node[5].appl receivedWSMs 0
scalar RSUExampleScenario.node[5].appl generatedBSMs 1140
scalar RSUExampleScenario.node[5].appl receivedBSMs 58933
scalar RSUExampleScenario.node[5].appl generatedWSAs 0
scalar RSUExampleScenario.node[5].appl receivedWSAs 0
scalar RSUExampleScenario.node[5].nic.phy80211p busyTime 0.065461614035171
scalar RSUExampleScenario.node[5].nic.mac1609_4 ReceivedUnicastPackets 0
scalar RSUExampleScenario.node[5].nic.mac1609_4 ReceivedBroadcasts 58933
scalar RSUExampleScenario.node[5].nic.mac1609_4 SentPackets 1140
scalar RSUExampleScenario.node[5].nic.mac1609_4 SentAcknowledgements 0
scalar RSUExampleScenario.node[5].nic.mac1609_4 RetriesExceeded 0
scalar RSUExampleScenario.node[5].nic.mac1609_4 SNIRLostPackets 12823
scalar RSUExampleScenario.node[5].nic.mac1609_4 RXTXLostPackets 0
scalar RSUExampleScenario.node[5].nic.mac1609_4 TotalLostPackets 12823
scalar RSUExampleScenario.node[5].nic.mac1609_4 DroppedPacketsInMac 0
scalar RSUExampleScenario.node[5].nic.mac1609_4 TooLittleTime 0
scalar RSUExampleScenario.node[5].nic.mac1609_4 TimesIntoBackoff 1140
scalar RSUExampleScenario.node[5].nic.mac1609_4 SlotsBackoff 1732
scalar RSUExampleScenario.node[5].nic.mac1609_4 NumInternalContention 0
scalar RSUExampleScenario.node[5].nic.mac1609_4 totalBusyTime 7.526685606342
scalar RSUExampleScenario.node[5].nic.mac1609_4 retriesExceeded:count 0
attr source org_car2x_veins_modules_mac_sigRetriesExceeded
scalar RSUExampleScenario.node[5].nic.mac1609_4 sentAcks:count 0
attr source org_car2x_veins_modules_mac_sigSentAck
scalar RSUExampleScenario.node[5].nic.mac1609_4 sentPackets:count 1140
attr source org_car2x_veins_modules_mac_sigSentPacket
scalar RSUExampleScenario.node[5].nic.mac1609_4 collisions:count 0
attr source org_car2x_veins_modules_mac_sigCollision
scalar RSUExampleScenario.node[5].nic.mac1609_4 channelBusy:timeavg 0.066023557950452
attr source org_car2x_veins_modules_mac_sigChannelBusy
scalar RSUExampleScenario.node[5].veinsmobility startTime 1.9
scalar RSUExampleScenario.node[5].veinsmobility totalTime 113.9
scalar RSUExampleScenario.node[5].veinsmobility stopTime 115.9
scalar RSUExampleScenario.node[5].veinsmobility minSpeed 6.1674440520057
scalar RSUExampleScenario.node[5].veinsmobility maxSpeed 8.8310277120259
scalar RSUExampleScenario.node[5].veinsmobility totalDistance 994.70301909871
scalar RSUExampleScenario.node[5].veinsmobility totalCO2Emission 210.05968007385
scalar RSUExampleScenario.node[7].appl generatedWSMs 0
scalar RSUExampleScenario.node[7].appl receivedWSMs 0
scalar RSUExampleScenario.node[7].appl generatedBSMs 1145
scalar RSUExampleScenario.node[7].appl receivedBSMs 60567
scalar RSUExampleScenario.node[7].appl generatedWSAs 0
scalar RSUExampleScenario.node[7].appl receivedWSAs 0
scalar RSUExampleScenario.node[7].nic.phy80211p busyTime 0.066876087336333
scalar RSUExampleScenario.node[7].nic.mac1609_4 ReceivedUnicastPackets 0
scalar RSUExampleScenario.node[7].nic.mac1609_4 ReceivedBroadcasts 60567
scalar RSUExampleScenario.node[7].nic.mac1609_4 SentPackets 1145
scalar RSUExampleScenario.node[7].nic.mac1609_4 SentAcknowledgements 0
scalar RSUExampleScenario.node[7].nic.mac1609_4 RetriesExceeded 0
scalar RSUExampleScenario.node[7].nic.mac1609_4 SNIRLostPackets 13061
scalar RSUExampleScenario.node[7].nic.mac1609_4 RXTXLostPackets 0
scalar RSUExampleScenario.node[7].nic.mac1609_4 TotalLostPackets 13061
scalar RSUExampleScenario.node[7].nic.mac1609_4 DroppedPacketsInMac 0
scalar RSUExampleScenario.node[7].nic.mac1609_4 TooLittleTime 0
scalar RSUExampleScenario.node[7].nic.mac1609_4 TimesIntoBackoff 1145
scalar RSUExampleScenario.node[7].nic.mac1609_4 SlotsBackoff 1702
scalar RSUExampleScenario.node[7].nic.mac1609_4 NumInternalContention 0
scalar RSUExampleScenario.node[7].nic.mac1609_4 totalBusyTime 7.719089444449
scalar RSUExampleScenario.node[7].nic.mac1609_4 retriesExceeded:count 0
attr source org_car2x_veins_modules_mac_sigRetriesExceeded
scalar RSUExampleScenario.node[7].nic.mac1609_4 sentAcks:count 0
attr source org_car2x_veins_modules_mac_sigSentAck
scalar RSUExampleScenario.node[7].nic.mac1609_4 sentPackets:count 1145
attr source org_car2x_veins_modules_mac_sigSentPacket
scalar RSUExampleScenario.node[7].nic.mac1609_4 collisions:count 0
attr source org_car2x_veins_modules_mac_sigCollision
scalar RSUExampleScenario.node[7].nic.mac1609_4 channelBusy:timeavg 0.067415628335887
attr source org_car2x_veins_modules_mac_sigChannelBusy
scalar RSUExampleScenario.node[7].veinsmobility startTime 3.1
scalar RSUExampleScenario.node[7].veinsmobility totalTime 114.4
scalar RSUExampleScenario.node[7].veinsmobility stopTime 117.6
scalar RSUExampleScenario.node[7].veinsmobility minSpeed 5.0751789698251
scalar RSUExampleScenario.node[7].veinsmobility maxSpeed 9.4528067668785
scalar RSUExampleScenario.node[7].veinsmobility totalDistance 993.99103274095
scalar RSUExampleScenario.node[7].veinsmobility totalCO2Emission 218.7580382999
scalar RSUExampleScenario.node[9].appl generatedWSMs 0
scalar RSUExampleScenario.node[9].appl receivedWSMs 0
scalar RSUExampleScenario.node[9].appl generatedBSMs 1149
scalar RSUExampleScenario.node[9].appl receivedBSMs 62029
scalar RSUExampleScenario.node[9].appl generatedWSAs 0
scalar RSUExampleScenario.node[9].appl receivedWSAs 0
scalar RSUExampleScenario.node[9].nic.phy80211p busyTime 0.068319582245524
scalar RSUExampleScenario.node[9].nic.mac1609_4 ReceivedUnicastPackets 0
scalar RSUExampleScenario.node[9].nic.mac1609_4 ReceivedBroadcasts 62029
scalar RSUExampleScenario.node[9].nic.mac1609_4 SentPackets 1149
scalar RSUExampleScenario.node[9].nic.mac1609_4 SentAcknowledgements 0
scalar RSUExampleScenario.node[9].nic.mac1609_4 RetriesExceeded 0
scalar RSUExampleScenario.node[9].nic.mac1609_4 SNIRLostPackets 13451
scalar RSUExampleScenario.node[9].nic.mac1609_4 RXTXLostPackets 0
scalar RSUExampleScenario.node[9].nic.mac1609_4 TotalLostPackets 13451
scalar RSUExampleScenario.node[9].nic.mac1609_4 DroppedPacketsInMac 0
scalar RSUExampleScenario.node[9].nic.mac1609_4 TooLittleTime 0
scalar RSUExampleScenario.node[9].nic.mac1609_4 TimesIntoBackoff 1149
scalar RSUExampleScenario.node[9].nic.mac1609_4 SlotsBackoff 1703
scalar RSUExampleScenario.node[9].nic.mac1609_4 NumInternalContention 0
scalar RSUExampleScenario.node[9].nic.mac1609_4 totalBusyTime 7.909829576271
scalar RSUExampleScenario.node[9].nic.mac1609_4 retriesExceeded:count 0
attr source org_car2x_veins_modules_mac_sigRetriesExceeded
scalar RSUExampleScenario.node[9].nic.mac1609_4 sentAcks:count 0
attr source org_car2x_veins_modules_mac_sigSentAck
scalar RSUExampleScenario.node[9].nic.mac1609_4 sentPackets:count 1149
attr source org_car2x_veins_modules_mac_sigSentPacket
scalar RSUExampleScenario.node[9].nic.mac1609_4 collisions:count 0
attr source org_car2x_veins_modules_mac_sigCollision
scalar RSUExampleScenario.node[9].nic.mac1609_4 channelBusy:timeavg 0.068840988479388
attr source org_car2x_veins_modules_mac_sigChannelBusy
scalar RSUExampleScenario.node[9].veinsmobility startTime 4.4
scalar RSUExampleScenario.node[9].veinsmobility totalTime 114.8
scalar RSUExampleScenario.node[9].veinsmobility stopTime 119.3
scalar RSUExampleScenario.node[9].veinsmobility minSpeed 4.1742525043195
scalar RSUExampleScenario.node[9].veinsmobility maxSpeed 10.533053786447
scalar RSUExampleScenario.node[9].veinsmobility totalDistance 994.63301458063
scalar RSUExampleScenario.node[9].veinsmobility totalCO2Emission 228.16649584502
scalar RSUExampleScenario.manager roiArea 0
scalar RSUExampleScenario.node[6].appl generatedWSMs 0
scalar RSUExampleScenario.node[6].appl receivedWSMs 0
scalar RSUExampleScenario.node[6].appl generatedBSMs 1172
scalar RSUExampleScenario.node[6].appl receivedBSMs 65187
scalar RSUExampleScenario.node[6].appl generatedWSAs 0
scalar RSUExampleScenario.node[6].appl receivedWSAs 0
scalar RSUExampleScenario.node[6].nic.phy80211p busyTime 0.067790784983029
scalar RSUExampleScenario.node[6].nic.mac1609_4 ReceivedUnicastPackets 0
scalar RSUExampleScenario.node[6].nic.mac1609_4 ReceivedBroadcasts 65187
scalar RSUExampleScenario.node[6].nic.mac1609_4 SentPackets 1172
scalar RSUExampleScenario.node[6].nic.mac1609_4 SentAcknowledgements 0
scalar RSUExampleScenario.node[6].nic.mac1609_4 RetriesExceeded 0
scalar RSUExampleScenario.node[6].nic.mac1609_4 SNIRLostPackets 11208
scalar RSUExampleScenario.node[6].nic.mac1609_4 RXTXLostPackets 0
scalar RSUExampleScenario.node[6].nic.mac1609_4 TotalLostPackets 11208
scalar RSUExampleScenario.node[6].nic.mac1609_4 DroppedPacketsInMac 0
scalar RSUExampleScenario.node[6].nic.mac1609_4 TooLittleTime 0
scalar RSUExampleScenario.node[6].nic.mac1609_4 TimesIntoBackoff 1172
scalar RSUExampleScenario.node[6].nic.mac1609_4 SlotsBackoff 1715
scalar RSUExampleScenario.node[6].nic.mac1609_4 NumInternalContention 0
scalar RSUExampleScenario.node[6].nic.mac1609_4 totalBusyTime 8.006572072578
scalar RSUExampleScenario.node[6].nic.mac1609_4 retriesExceeded:count 0
attr source org_car2x_veins_modules_mac_sigRetriesExceeded
scalar RSUExampleScenario.node[6].nic.mac1609_4 sentAcks:count 0
attr source org_car2x_veins_modules_mac_sigSentAck
scalar RSUExampleScenario.node[6].nic.mac1609_4 sentPackets:count 1172
attr source org_car2x_veins_modules_mac_sigSentPacket
scalar RSUExampleScenario.node[6].nic.mac1609_4 collisions:count 0
attr source org_car2x_veins_modules_mac_sigCollision
scalar RSUExampleScenario.node[6].nic.mac1609_4 channelBusy:timeavg 0.068315461370213
attr source org_car2x_veins_modules_mac_sigChannelBusy
scalar RSUExampleScenario.node[6].veinsmobility startTime 2.8
scalar RSUExampleScenario.node[6].veinsmobility totalTime 117.2
scalar RSUExampleScenario.node[6].veinsmobility stopTime 120
scalar RSUExampleScenario.node[6].veinsmobility minSpeed 5.1818238394876
scalar RSUExampleScenario.node[6].veinsmobility maxSpeed 7.6442470262717
scalar RSUExampleScenario.node[6].veinsmobility totalDistance 886.39309888665
scalar RSUExampleScenario.node[6].veinsmobility totalCO2Emission 199.12245452551
scalar RSUExampleScenario.node[8].appl generatedWSMs 0
scalar RSUExampleScenario.node[8].appl receivedWSMs 0
scalar RSUExampleScenario.node[8].appl generatedBSMs 1159
scalar RSUExampleScenario.node[8].appl receivedBSMs 65434
scalar RSUExampleScenario.node[8].appl generatedWSAs 0
scalar RSUExampleScenario.node[8].appl receivedWSAs 0
scalar RSUExampleScenario.node[8].nic.phy80211p busyTime 0.068472200172658
scalar RSUExampleScenario.node[8].nic.mac1609_4 ReceivedUnicastPackets 0
scalar RSUExampleScenario.node[8].nic.mac1609_4 ReceivedBroadcasts 65434
scalar RSUExampleScenario.node[8].nic.mac1609_4 SentPackets 1159
scalar RSUExampleScenario.node[8].nic.mac1609_4 SentAcknowledgements 0
scalar RSUExampleScenario.node[8].nic.mac1609_4 RetriesExceeded 0
scalar RSUExampleScenario.node[8].nic.mac1609_4 SNIRLostPackets 10873
scalar RSUExampleScenario.node[8].nic.mac1609_4 RXTXLostPackets 0
scalar RSUExampleScenario.node[8].nic.mac1609_4 TotalLostPackets 10873
scalar RSUExampleScenario.node[8].nic.mac1609_4 DroppedPacketsInMac 0
scalar RSUExampleScenario.node[8].nic.mac1609_4 TooLittleTime 0
scalar RSUExampleScenario.node[8].nic.mac1609_4 TimesIntoBackoff 1159
scalar RSUExampleScenario.node[8].nic.mac1609_4 SlotsBackoff 1693
scalar RSUExampleScenario.node[8].nic.mac1609_4 NumInternalContention 0
scalar RSUExampleScenario.node[8].nic.mac1609_4 totalBusyTime 7.996055014797
scalar RSUExampleScenario.node[8].nic.mac1609_4 retriesExceeded:count 0
attr source org_car2x_veins_modules_mac_sigRetriesExceeded
scalar RSUExampleScenario.node[8].nic.mac1609_4 sentAcks:count 0
attr source org_car2x_veins_modules_mac_sigSentAck
scalar RSUExampleScenario.node[8].nic.mac1609_4 sentPackets:count 1159
attr source org_car2x_veins_modules_mac_sigSentPacket
scalar RSUExampleScenario.node[8].nic.mac1609_4 collisions:count 0
attr source org_car2x_veins_modules_mac_sigCollision
scalar RSUExampleScenario.node[8].nic.mac1609_4 channelBusy:timeavg 0.068990983734322
attr source org_car2x_veins_modules_mac_sigChannelBusy
scalar RSUExampleScenario.node[8].veinsmobility startTime 4.1
scalar RSUExampleScenario.node[8].veinsmobility totalTime 115.9
scalar RSUExampleScenario.node[8].veinsmobility stopTime 120
scalar RSUExampleScenario.node[8].veinsmobility minSpeed 4.5244704246634
scalar RSUExampleScenario.node[8].veinsmobility maxSpeed 7.688170029149
scalar RSUExampleScenario.node[8].veinsmobility totalDistance 871.09424706067
scalar RSUExampleScenario.node[8].veinsmobility totalCO2Emission 206.39885606635
scalar RSUExampleScenario.node[10].appl generatedWSMs 0
scalar RSUExampleScenario.node[10].appl receivedWSMs 0
scalar RSUExampleScenario.node[10].appl generatedBSMs 1145
scalar RSUExampleScenario.node[10].appl receivedBSMs 65525
scalar RSUExampleScenario.node[10].appl generatedWSAs 0
scalar RSUExampleScenario.node[10].appl receivedWSAs 0
scalar RSUExampleScenario.node[10].nic.phy80211p busyTime 0.06919769432324
scalar RSUExampleScenario.node[10].nic.mac1609_4 ReceivedUnicastPackets 0
scalar RSUExampleScenario.node[10].nic.mac1609_4 ReceivedBroadcasts 65525
scalar RSUExampleScenario.node[10].nic.mac1609_4 SentPackets 1145
scalar RSUExampleScenario.node[10].nic.mac1609_4 SentAcknowledgements 0
scalar RSUExampleScenario.node[10].nic.mac1609_4 RetriesExceeded 0
scalar RSUExampleScenario.node[10].nic.mac1609_4 SNIRLostPackets 10659
scalar RSUExampleScenario.node[10].nic.mac1609_4 RXTXLostPackets 0
scalar RSUExampleScenario.node[10].nic.mac1609_4 TotalLostPackets 10659
scalar RSUExampleScenario.node[10].nic.mac1609_4 DroppedPacketsInMac 0
scalar RSUExampleScenario.node[10].nic.mac1609_4 TooLittleTime 0
scalar RSUExampleScenario.node[10].nic.mac1609_4 TimesIntoBackoff 1145
scalar RSUExampleScenario.node[10].nic.mac1609_4 SlotsBackoff 1681
scalar RSUExampleScenario.node[10].nic.mac1609_4 NumInternalContention 0
scalar RSUExampleScenario.node[10].nic.mac1609_4 totalBusyTime 7.981793
scalar RSUExampleScenario.node[10].nic.mac1609_4 retriesExceeded:count 0
attr source org_car2x_veins_modules_mac_sigRetriesExceeded
scalar RSUExampleScenario.node[10].nic.mac1609_4 sentAcks:count 0
attr source org_car2x_veins_modules_mac_sigSentAck
scalar RSUExampleScenario.node[10].nic.mac1609_4 sentPackets:count 1145
attr source org_car2x_veins_modules_mac_sigSentPacket
scalar RSUExampleScenario.node[10].nic.mac1609_4 collisions:count 0
attr source org_car2x_veins_modules_mac_sigCollision
scalar RSUExampleScenario.node[10].nic.mac1609_4 channelBusy:timeavg 0.069709982532846
attr source org_car2x_veins_modules_mac_sigChannelBusy
scalar RSUExampleScenario.node[10].veinsmobility startTime 5.5
scalar RSUExampleScenario.node[10].veinsmobility totalTime 114.5
scalar RSUExampleScenario.node[10].veinsmobility stopTime 120
scalar RSUExampleScenario.node[10].veinsmobility minSpeed 3.6654344921086
scalar RSUExampleScenario.node[10].veinsmobility maxSpeed 7.7098890446322
scalar RSUExampleScenario.node[10].veinsmobility totalDistance 855.77839179136
scalar RSUExampleScenario.node[10].veinsmobility totalCO2Emission 210.00886719015
scalar RSUExampleScenario.node[11].appl generatedWSMs 0
scalar RSUExampleScenario.node[11].appl receivedWSMs 0
scalar RSUExampleScenario.node[11].appl generatedBSMs 1141
scalar RSUExampleScenario.node[11].appl receivedBSMs 62895
scalar RSUExampleScenario.node[11].appl generatedWSAs 0
scalar RSUExampleScenario.node[11].appl receivedWSAs 0
scalar RSUExampleScenario.node[11].nic.phy80211p busyTime 0.069403821209561
scalar RSUExampleScenario.node[11].nic.mac1609_4 ReceivedUnicastPackets 0
scalar RSUExampleScenario.node[11].nic.mac1609_4 ReceivedBroadcasts 62895
scalar RSUExampleScenario.node[11].nic.mac1609_4 SentPackets 1141
scalar RSUExampleScenario.node[11].nic.mac1609_4 SentAcknowledgements 0
scalar RSUExampleScenario.node[11].nic.mac1609_4 RetriesExceeded 0
scalar RSUExampleScenario.node[11].nic.mac1609_4 SNIRLostPackets 13249
scalar RSUExampleScenario.node[11].nic.mac1609_4 RXTXLostPackets 0
scalar RSUExampleScenario.node[11].nic.mac1609_4 TotalLostPackets 13249
scalar RSUExampleScenario.node[11].nic.mac1609_4 DroppedPacketsInMac 0
scalar RSUExampleScenario.node[11].nic.mac1609_4 TooLittleTime 0
scalar RSUExampleScenario.node[11].nic.mac1609_4 TimesIntoBackoff 1141
scalar RSUExampleScenario.node[11].nic.mac1609_4 SlotsBackoff 1727
scalar RSUExampleScenario.node[11].nic.mac1609_4 NumInternalContention 0
scalar RSUExampleScenario.node[11].nic.mac1609_4 totalBusyTime 7.97721353289
scalar RSUExampleScenario.node[11].nic.mac1609_4 retriesExceeded:count 0
attr source org_car2x_veins_modules_mac_sigRetriesExceeded
scalar RSUExampleScenario.node[11].nic.mac1609_4 sentAcks:count 0
attr source org_car2x_veins_modules_mac_sigSentAck
scalar RSUExampleScenario.node[11].nic.mac1609_4 sentPackets:count 1141
attr source org_car2x_veins_modules_mac_sigSentPacket
scalar RSUExampleScenario.node[11].nic.mac1609_4 collisions:count 0
attr source org_car2x_veins_modules_mac_sigCollision
scalar RSUExampleScenario.node[11].nic.mac1609_4 channelBusy:timeavg 0.069914229035065
attr source org_car2x_veins_modules_mac_sigChannelBusy
scalar RSUExampleScenario.node[11].veinsmobility startTime 5.9
scalar RSUExampleScenario.node[11].veinsmobility totalTime 114.1
scalar RSUExampleScenario.node[11].veinsmobility stopTime 120
scalar RSUExampleScenario.node[11].veinsmobility minSpeed 3.7445832502908
scalar RSUExampleScenario.node[11].veinsmobility maxSpeed 11.604302606938
scalar RSUExampleScenario.node[11].veinsmobility totalDistance 986.14228149781
scalar RSUExampleScenario.node[11].veinsmobility totalCO2Emission 232.90968547172
scalar RSUExampleScenario.node[12].appl generatedWSMs 0
scalar RSUExampleScenario.node[12].appl receivedWSMs 0
scalar RSUExampleScenario.node[12].appl generatedBSMs 1128
scalar RSUExampleScenario.node[12].appl receivedBSMs 65619
scalar RSUExampleScenario.node[12].appl generatedWSAs 0
scalar RSUExampleScenario.node[12].appl receivedWSAs 0
scalar RSUExampleScenario.node[12].nic.phy80211p busyTime 0.070071843971728
scalar RSUExampleScenario.node[12].nic.mac1609_4 ReceivedUnicastPackets 0
scalar RSUExampleScenario.node[12].nic.mac1609_4 ReceivedBroadcasts 65619
scalar RSUExampleScenario.node[12].nic.mac1609_4 SentPackets 1128
scalar RSUExampleScenario.node[12].nic.mac1609_4 SentAcknowledgements 0
scalar RSUExampleScenario.node[12].nic.mac1609_4 RetriesExceeded 0
scalar RSUExampleScenario.node[12].nic.mac1609_4 SNIRLostPackets 10382
scalar RSUExampleScenario.node[12].nic.mac1609_4 RXTXLostPackets 0
scalar RSUExampleScenario.node[12].nic.mac1609_4 TotalLostPackets 10382
scalar RSUExampleScenario.node[12].nic.mac1609_4 DroppedPacketsInMac 0
scalar RSUExampleScenario.node[12].nic.mac1609_4 TooLittleTime 0
scalar RSUExampleScenario.node[12].nic.mac1609_4 TimesIntoBackoff 1128
scalar RSUExampleScenario.node[12].nic.mac1609_4 SlotsBackoff 1682
scalar RSUExampleScenario.node[12].nic.mac1609_4 NumInternalContention 0
scalar RSUExampleScenario.node[12].nic.mac1609_4 totalBusyTime 7.960976
scalar RSUExampleScenario.node[12].nic.mac1609_4 retriesExceeded:count 0
attr source org_car2x_veins_modules_mac_sigRetriesExceeded
scalar RSUExampleScenario.node[12].nic.mac1609_4 sentAcks:count 0
attr source org_car2x_veins_modules_mac_sigSentAck
scalar RSUExampleScenario.node[12].nic.mac1609_4 sentPackets:count 1128
attr source org_car2x_veins_modules_mac_sigSentPacket
scalar RSUExampleScenario.node[12].nic.mac1609_4 collisions:count 0
attr source org_car2x_veins_modules_mac_sigCollision
scalar RSUExampleScenario.node[12].nic.mac1609_4 channelBusy:timeavg 0.07057602836889
attr source org_car2x_veins_modules_mac_sigChannelBusy
scalar RSUExampleScenario.node[12].veinsmobility startTime 7.2
scalar RSUExampleScenario.node[12].veinsmobility totalTime 112.8
scalar RSUExampleScenario.node[12].veinsmobility stopTime 120
scalar RSUExampleScenario.node[12].veinsmobility minSpeed 3.2275367535996
scalar RSUExampleScenario.node[12].veinsmobility maxSpeed 7.7273936270231
scalar RSUExampleScenario.node[12].veinsmobility totalDistance 840.45294104082
scalar RSUExampleScenario.node[12].veinsmobility totalCO2Emission 209.99120243164
scalar RSUExampleScenario.node[13].appl generatedWSMs 0
scalar RSUExampleScenario.node[13].appl receivedWSMs 0
scalar RSUExampleScenario.node[13].appl generatedBSMs 1125
scalar RSUExampleScenario.node[13].appl receivedBSMs 63225
scalar RSUExampleScenario.node[13].appl generatedWSAs 0
scalar RSUExampleScenario.node[13].appl receivedWSAs 0
scalar RSUExampleScenario.node[13].nic.phy80211p busyTime 0.070225422222319
scalar RSUExampleScenario.node[13].nic.mac1609_4 ReceivedUnicastPackets 0
scalar RSUExampleScenario.node[13].nic.mac1609_4 ReceivedBroadcasts 63225
scalar RSUExampleScenario.node[13].nic.mac1609_4 SentPackets 1125
scalar RSUExampleScenario.node[13].nic.mac1609_4 SentAcknowledgements 0
scalar RSUExampleScenario.node[13].nic.mac1609_4 RetriesExceeded 0
scalar RSUExampleScenario.node[13].nic.mac1609_4 SNIRLostPackets 12740
scalar RSUExampleScenario.node[13].nic.mac1609_4 RXTXLostPackets 0
scalar RSUExampleScenario.node[13].nic.mac1609_4 TotalLostPackets 12740
scalar RSUExampleScenario.node[13].nic.mac1609_4 DroppedPacketsInMac 0
scalar RSUExampleScenario.node[13].nic.mac1609_4 TooLittleTime 0
scalar RSUExampleScenario.node[13].nic.mac1609_4 TimesIntoBackoff 1125
scalar RSUExampleScenario.node[13].nic.mac1609_4 SlotsBackoff 1643
scalar RSUExampleScenario.node[13].nic.mac1609_4 NumInternalContention 0
scalar RSUExampleScenario.node[13].nic.mac1609_4 totalBusyTime 7.956917410807
scalar RSUExampleScenario.node[13].nic.mac1609_4 retriesExceeded:count 0
attr source org_car2x_veins_modules_mac_sigRetriesExceeded
scalar RSUExampleScenario.node[13].nic.mac1609_4 sentAcks:count 0
attr source org_car2x_veins_modules_mac_sigSentAck
scalar RSUExampleScenario.node[13].nic.mac1609_4 sentPackets:count 1125
attr source org_car2x_veins_modules_mac_sigSentPacket
scalar RSUExampleScenario.node[13].nic.mac1609_4 collisions:count 0
attr source org_car2x_veins_modules_mac_sigCollision
scalar RSUExampleScenario.node[13].nic.mac1609_4 channelBusy:timeavg 0.070728154762825
attr source org_car2x_veins_modules_mac_sigChannelBusy
scalar RSUExampleScenario.node[13].veinsmobility startTime 7.5
scalar RSUExampleScenario.node[13].veinsmobility totalTime 112.5
scalar RSUExampleScenario.node[13].veinsmobility stopTime 120
scalar RSUExampleScenario.node[13].veinsmobility minSpeed 3.4233821159535
scalar RSUExampleScenario.node[13].veinsmobility maxSpeed 9.4491464307115
scalar RSUExampleScenario.node[13].veinsmobility totalDistance 967.24563860039
scalar RSUExampleScenario.node[13].veinsmobility totalCO2Emission 226.86760791704
scalar RSUExampleScenario.node[14].appl generatedWSMs 0
scalar RSUExampleScenario.node[14].appl receivedWSMs 0
scalar RSUExampleScenario.node[14].appl generatedBSMs 1110
scalar RSUExampleScenario.node[14].appl receivedBSMs 66326
scalar RSUExampleScenario.node[14].appl generatedWSAs 0
scalar RSUExampleScenario.node[14].appl receivedWSAs 0
scalar RSUExampleScenario.node[14].nic.phy80211p busyTime 0.070991711711809
scalar RSUExampleScenario.node[14].nic.mac1609_4 ReceivedUnicastPackets 0
scalar RSUExampleScenario.node[14].nic.mac1609_4 ReceivedBroadcasts 66326
scalar RSUExampleScenario.node[14].nic.mac1609_4 SentPackets 1110
scalar RSUExampleScenario.node[14].nic.mac1609_4 SentAcknowledgements 0
scalar RSUExampleScenario.node[14].nic.mac1609_4 RetriesExceeded 0
scalar RSUExampleScenario.node[14].nic.mac1609_4 SNIRLostPackets 9444
scalar RSUExampleScenario.node[14].nic.mac1609_4 RXTXLostPackets 0
scalar RSUExampleScenario.node[14].nic.mac1609_4 TotalLostPackets 9444
scalar RSUExampleScenario.node[14].nic.mac1609_4 DroppedPacketsInMac 0
scalar RSUExampleScenario.node[14].nic.mac1609_4 TooLittleTime 0
scalar RSUExampleScenario.node[14].nic.mac1609_4 TimesIntoBackoff 1110
scalar RSUExampleScenario.node[14].nic.mac1609_4 SlotsBackoff 1658
scalar RSUExampleScenario.node[14].nic.mac1609_4 NumInternalContention 0
scalar RSUExampleScenario.node[14].nic.mac1609_4 totalBusyTime 7.935062404302
scalar RSUExampleScenario.node[14].nic.mac1609_4 retriesExceeded:count 0
attr source org_car2x_veins_modules_mac_sigRetriesExceeded
scalar RSUExampleScenario.node[14].nic.mac1609_4 sentAcks:count 0
attr source org_car2x_veins_modules_mac_sigSentAck
scalar RSUExampleScenario.node[14].nic.mac1609_4 sentPackets:count 1110
attr source org_car2x_veins_modules_mac_sigSentPacket
scalar RSUExampleScenario.node[14].nic.mac1609_4 collisions:count 0
attr source org_car2x_veins_modules_mac_sigCollision
scalar RSUExampleScenario.node[14].nic.mac1609_4 channelBusy:timeavg 0.071487048687502
attr source org_car2x_veins_modules_mac_sigChannelBusy
scalar RSUExampleScenario.node[14].veinsmobility startTime 9
scalar RSUExampleScenario.node[14].veinsmobility totalTime 111
scalar RSUExampleScenario.node[14].veinsmobility stopTime 120
scalar RSUExampleScenario.node[14].veinsmobility minSpeed 2.9111682529876
scalar RSUExampleScenario.node[14].veinsmobility maxSpeed 7.2419572936884
scalar RSUExampleScenario.node[14].veinsmobility totalDistance 785.83941903567
scalar RSUExampleScenario.node[14].veinsmobility totalCO2Emission 186.09156572829
scalar RSUExampleScenario.node[15].appl generatedWSMs 0
scalar RSUExampleScenario.node[15].appl receivedWSMs 0
scalar RSUExampleScenario.node[15].appl generatedBSMs 1108
scalar RSUExampleScenario.node[15].appl receivedBSMs 63535
scalar RSUExampleScenario.node[15].appl generatedWSAs 0
scalar RSUExampleScenario.node[15].appl receivedWSAs 0
scalar RSUExampleScenario.node[15].nic.phy80211p busyTime 0.071093574007318
scalar RSUExampleScenario.node[15].nic.mac1609_4 ReceivedUnicastPackets 0
scalar RSUExampleScenario.node[15].nic.mac1609_4 ReceivedBroadcasts 63535
scalar RSUExampleScenario.node[15].nic.mac1609_4 SentPackets 1108
scalar RSUExampleScenario.node[15].nic.mac1609_4 SentAcknowledgements 0
scalar RSUExampleScenario.node[15].nic.mac1609_4 RetriesExceeded 0
scalar RSUExampleScenario.node[15].nic.mac1609_4 SNIRLostPackets 12207
scalar RSUExampleScenario.node[15].nic.mac1609_4 RXTXLostPackets 0
scalar RSUExampleScenario.node[15].nic.mac1609_4 TotalLostPackets 12207
scalar RSUExampleScenario.node[15].nic.mac1609_4 DroppedPacketsInMac 0
scalar RSUExampleScenario.node[15].nic.mac1609_4 TooLittleTime 0
scalar RSUExampleScenario.node[15].nic.mac1609_4 TimesIntoBackoff 1108
scalar RSUExampleScenario.node[15].nic.mac1609_4 SlotsBackoff 1713
scalar RSUExampleScenario.node[15].nic.mac1609_4 NumInternalContention 0
scalar RSUExampleScenario.node[15].nic.mac1609_4 totalBusyTime 7.93194055369
scalar RSUExampleScenario.node[15].nic.mac1609_4 retriesExceeded:count 0
attr source org_car2x_veins_modules_mac_sigRetriesExceeded
scalar RSUExampleScenario.node[15].nic.mac1609_4 sentAcks:count 0
attr source org_car2x_veins_modules_mac_sigSentAck
scalar RSUExampleScenario.node[15].nic.mac1609_4 sentPackets:count 1108
attr source org_car2x_veins_modules_mac_sigSentPacket
scalar RSUExampleScenario.node[15].nic.mac1609_4 collisions:count 0
attr source org_car2x_veins_modules_mac_sigCollision
scalar RSUExampleScenario.node[15].nic.mac1609_4 channelBusy:timeavg 0.071587911134483
attr source org_car2x_veins_modules_mac_sigChannelBusy
scalar RSUExampleScenario.node[15].veinsmobility startTime 9.2
scalar RSUExampleScenario.node[15].veinsmobility totalTime 110.8
scalar RSUExampleScenario.node[15].veinsmobility stopTime 120
scalar RSUExampleScenario.node[15].veinsmobility minSpeed 3.312084221117
scalar RSUExampleScenario.node[15].veinsmobility maxSpeed 9.4125399854036
scalar RSUExampleScenario.node[15].veinsmobility totalDistance 950.38421207722
scalar RSUExampleScenario.node[15].veinsmobility totalCO2Emission 224.34927099451
scalar RSUExampleScenario.node[16].appl generatedWSMs 0
scalar RSUExampleScenario.node[16].appl receivedWSMs 0
scalar RSUExampleScenario.node[16].appl generatedBSMs 1091
scalar RSUExampleScenario.node[16].appl receivedBSMs 66147
scalar RSUExampleScenario.node[16].appl generatedWSAs 0
scalar RSUExampleScenario.node[16].appl receivedWSAs 0
scalar RSUExampleScenario.node[16].nic.phy80211p busyTime 0.071958276810364
scalar RSUExampleScenario.node[16].nic.mac1609_4 ReceivedUnicastPackets 0
scalar RSUExampleScenario.node[16].nic.mac1609_4 ReceivedBroadcasts 66147
scalar RSUExampleScenario.node[16].nic.mac1609_4 SentPackets 1091
scalar RSUExampleScenario.node[16].nic.mac1609_4 SentAcknowledgements 0
scalar RSUExampleScenario.node[16].nic.mac1609_4 RetriesExceeded 0
scalar RSUExampleScenario.node[16].nic.mac1609_4 SNIRLostPackets 9340
scalar RSUExampleScenario.node[16].nic.mac1609_4 RXTXLostPackets 0
scalar RSUExampleScenario.node[16].nic.mac1609_4 TotalLostPackets 9340
scalar RSUExampleScenario.node[16].nic.mac1609_4 DroppedPacketsInMac 0
scalar RSUExampleScenario.node[16].nic.mac1609_4 TooLittleTime 0
scalar RSUExampleScenario.node[16].nic.mac1609_4 TimesIntoBackoff 1091
scalar RSUExampleScenario.node[16].nic.mac1609_4 SlotsBackoff 1674
scalar RSUExampleScenario.node[16].nic.mac1609_4 NumInternalContention 0
scalar RSUExampleScenario.node[16].nic.mac1609_4 totalBusyTime 7.903635978184
scalar RSUExampleScenario.node[16].nic.mac1609_4 retriesExceeded:count 0
attr source org_car2x_veins_modules_mac_sigRetriesExceeded
scalar RSUExampleScenario.node[16].nic.mac1609_4 sentAcks:count 0
attr source org_car2x_veins_modules_mac_sigSentAck
scalar RSUExampleScenario.node[16].nic.mac1609_4 sentPackets:count 1091
attr source org_car2x_veins_modules_mac_sigSentPacket
scalar RSUExampleScenario.node[16].nic.mac1609_4 collisions:count 0
attr source org_car2x_veins_modules_mac_sigCollision
scalar RSUExampleScenario.node[16].nic.mac1609_4 channelBusy:timeavg 0.072443959470162
attr source org_car2x_veins_modules_mac_sigChannelBusy
scalar RSUExampleScenario.node[16].veinsmobility startTime 10.9
scalar RSUExampleScenario.node[16].veinsmobility totalTime 109.1
scalar RSUExampleScenario.node[16].veinsmobility stopTime 120
scalar RSUExampleScenario.node[16].veinsmobility minSpeed 2.7774859523908
scalar RSUExampleScenario.node[16].veinsmobility maxSpeed 7.283842212279
scalar RSUExampleScenario.node[16].veinsmobility totalDistance 770.9494280665
scalar RSUExampleScenario.node[16].veinsmobility totalCO2Emission 189.89148806225
scalar RSUExampleScenario.node[17].appl generatedWSMs 0
scalar RSUExampleScenario.node[17].appl receivedWSMs 0
scalar RSUExampleScenario.node[17].appl generatedBSMs 1091
scalar RSUExampleScenario.node[17].appl receivedBSMs 63822
scalar RSUExampleScenario.node[17].appl generatedWSAs 0
scalar RSUExampleScenario.node[17].appl receivedWSAs 0
scalar RSUExampleScenario.node[17].nic.phy80211p busyTime 0.071937305224663
scalar RSUExampleScenario.node[17].nic.mac1609_4 ReceivedUnicastPackets 0
scalar RSUExampleScenario.node[17].nic.mac1609_4 ReceivedBroadcasts 63822
scalar RSUExampleScenario.node[17].nic.mac1609_4 SentPackets 1091
scalar RSUExampleScenario.node[17].nic.mac1609_4 SentAcknowledgements 0
scalar RSUExampleScenario.node[17].nic.mac1609_4 RetriesExceeded 0
scalar RSUExampleScenario.node[17].nic.mac1609_4 SNIRLostPackets 11643
scalar RSUExampleScenario.node[17].nic.mac1609_4 RXTXLostPackets 22
scalar RSUExampleScenario.node[17].nic.mac1609_4 TotalLostPackets 11665
scalar RSUExampleScenario.node[17].nic.mac1609_4 DroppedPacketsInMac 0
scalar RSUExampleScenario.node[17].nic.mac1609_4 TooLittleTime 0
scalar RSUExampleScenario.node[17].nic.mac1609_4 TimesIntoBackoff 1879
scalar RSUExampleScenario.node[17].nic.mac1609_4 SlotsBackoff 2799
scalar RSUExampleScenario.node[17].nic.mac1609_4 NumInternalContention 0
scalar RSUExampleScenario.node[17].nic.mac1609_4 totalBusyTime 7.903635835816
scalar RSUExampleScenario.node[17].nic.mac1609_4 retriesExceeded:count 0
attr source org_car2x_veins_modules_mac_sigRetriesExceeded
scalar RSUExampleScenario.node[17].nic.mac1609_4 sentAcks:count 0
attr source org_car2x_veins_modules_mac_sigSentAck
scalar RSUExampleScenario.node[17].nic.mac1609_4 sentPackets:count 1091
attr source org_car2x_veins_modules_mac_sigSentPacket
scalar RSUExampleScenario.node[17].nic.mac1609_4 collisions:count 0
attr source org_car2x_veins_modules_mac_sigCollision
scalar RSUExampleScenario.node[17].nic.mac1609_4 channelBusy:timeavg 0.072443958165231
attr source org_car2x_veins_modules_mac_sigChannelBusy
scalar RSUExampleScenario.node[17].veinsmobility startTime 10.9
scalar RSUExampleScenario.node[17].veinsmobility totalTime 109.1
scalar RSUExampleScenario.node[17].veinsmobility stopTime 120
scalar RSUExampleScenario.node[17].veinsmobility minSpeed 2.989563684497
scalar RSUExampleScenario.node[17].veinsmobility maxSpeed 9.3174809709045
scalar RSUExampleScenario.node[17].veinsmobility totalDistance 933.58679896534
scalar RSUExampleScenario.node[17].veinsmobility totalCO2Emission 220.61185802125
scalar RSUExampleScenario.node[18].appl generatedWSMs 0
scalar RSUExampleScenario.node[18].appl receivedWSMs 0
scalar RSUExampleScenario.node[18].appl generatedBSMs 1073
scalar RSUExampleScenario.node[18].appl receivedBSMs 63921
scalar RSUExampleScenario.node[18].appl generatedWSAs 0
scalar RSUExampleScenario.node[18].appl receivedWSAs 0
scalar RSUExampleScenario.node[18].nic.phy80211p busyTime 0.072868816402709
scalar RSUExampleScenario.node[18].nic.mac1609_4 ReceivedUnicastPackets 0
scalar RSUExampleScenario.node[18].nic.mac1609_4 ReceivedBroadcasts 63921
scalar RSUExampleScenario.node[18].nic.mac1609_4 SentPackets 1073
scalar RSUExampleScenario.node[18].nic.mac1609_4 SentAcknowledgements 0
scalar RSUExampleScenario.node[18].nic.mac1609_4 RetriesExceeded 0
scalar RSUExampleScenario.node[18].nic.mac1609_4 SNIRLostPackets 11260
scalar RSUExampleScenario.node[18].nic.mac1609_4 RXTXLostPackets 0
scalar RSUExampleScenario.node[18].nic.mac1609_4 TotalLostPackets 11260
scalar RSUExampleScenario.node[18].nic.mac1609_4 DroppedPacketsInMac 0
scalar RSUExampleScenario.node[18].nic.mac1609_4 TooLittleTime 0
scalar RSUExampleScenario.node[18].nic.mac1609_4 TimesIntoBackoff 1073
scalar RSUExampleScenario.node[18].nic.mac1609_4 SlotsBackoff 1575
scalar RSUExampleScenario.node[18].nic.mac1609_4 NumInternalContention 0
scalar RSUExampleScenario.node[18].nic.mac1609_4 totalBusyTime 7.869921774462
scalar RSUExampleScenario.node[18].nic.mac1609_4 retriesExceeded:count 0
attr source org_car2x_veins_modules_mac_sigRetriesExceeded
scalar RSUExampleScenario.node[18].nic.mac1609_4 sentAcks:count 0
attr source org_car2x_veins_modules_mac_sigSentAck
scalar RSUExampleScenario.node[18].nic.mac1609_4 sentPackets:count 1073
attr source org_car2x_veins_modules_mac_sigSentPacket
scalar RSUExampleScenario.node[18].nic.mac1609_4 collisions:count 0
attr source org_car2x_veins_modules_mac_sigCollision
scalar RSUExampleScenario.node[18].nic.mac1609_4 channelBusy:timeavg 0.073345030516986
attr source org_car2x_veins_modules_mac_sigChannelBusy
scalar RSUExampleScenario.node[18].veinsmobility startTime 12.7
scalar RSUExampleScenario.node[18].veinsmobility totalTime 107.3
scalar RSUExampleScenario.node[18].veinsmobility stopTime 120
scalar RSUExampleScenario.node[18].veinsmobility minSpeed 3.0223653915775
scalar RSUExampleScenario.node[18].veinsmobility maxSpeed 9.1965933735167
scalar RSUExampleScenario.node[18].veinsmobility totalDistance 916.81122399842
scalar RSUExampleScenario.node[18].veinsmobility totalCO2Emission 219.29824678212
scalar RSUExampleScenario.node[19].appl generatedWSMs 0
scalar RSUExampleScenario.node[19].appl receivedWSMs 0
scalar RSUExampleScenario.node[19].appl generatedBSMs 1072
scalar RSUExampleScenario.node[19].appl receivedBSMs 66112
scalar RSUExampleScenario.node[19].appl generatedWSAs 0
scalar RSUExampleScenario.node[19].appl receivedWSAs 0
scalar RSUExampleScenario.node[19].nic.phy80211p busyTime 0.072775746268756
scalar RSUExampleScenario.node[19].nic.mac1609_4 ReceivedUnicastPackets 0
scalar RSUExampleScenario.node[19].nic.mac1609_4 ReceivedBroadcasts 66112
scalar RSUExampleScenario.node[19].nic.mac1609_4 SentPackets 1072
scalar RSUExampleScenario.node[19].nic.mac1609_4 SentAcknowledgements 0
scalar RSUExampleScenario.node[19].nic.mac1609_4 RetriesExceeded 0
scalar RSUExampleScenario.node[19].nic.mac1609_4 SNIRLostPackets 8903
scalar RSUExampleScenario.node[19].nic.mac1609_4 RXTXLostPackets 148
scalar RSUExampleScenario.node[19].nic.mac1609_4 TotalLostPackets 9051
scalar RSUExampleScenario.node[19].nic.mac1609_4 DroppedPacketsInMac 0
scalar RSUExampleScenario.node[19].nic.mac1609_4 TooLittleTime 0
scalar RSUExampleScenario.node[19].nic.mac1609_4 TimesIntoBackoff 1072
scalar RSUExampleScenario.node[19].nic.mac1609_4 SlotsBackoff 1616
scalar RSUExampleScenario.node[19].nic.mac1609_4 NumInternalContention 0
scalar RSUExampleScenario.node[19].nic.mac1609_4 totalBusyTime 7.867944677121
scalar RSUExampleScenario.node[19].nic.mac1609_4 retriesExceeded:count 0
attr source org_car2x_veins_modules_mac_sigRetriesExceeded
scalar RSUExampleScenario.node[19].nic.mac1609_4 sentAcks:count 0
attr source org_car2x_veins_modules_mac_sigSentAck
scalar RSUExampleScenario.node[19].nic.mac1609_4 sentPackets:count 1072
attr source org_car2x_veins_modules_mac_sigSentPacket
scalar RSUExampleScenario.node[19].nic.mac1609_4 collisions:count 0
attr source org_car2x_veins_modules_mac_sigCollision
scalar RSUExampleScenario.node[19].nic.mac1609_4 channelBusy:timeavg 0.073395006316526
attr source org_car2x_veins_modules_mac_sigChannelBusy
scalar RSUExampleScenario.node[19].veinsmobility startTime 12.8
scalar RSUExampleScenario.node[19].veinsmobility totalTime 107.2
scalar RSUExampleScenario.node[19].veinsmobility stopTime 120
scalar RSUExampleScenario.node[19].veinsmobility minSpeed 2.6973093504103
scalar RSUExampleScenario.node[19].veinsmobility maxSpeed 7.3124041871361
scalar RSUExampleScenario.node[19].veinsmobility totalDistance 756.06576376211
scalar RSUExampleScenario.node[19].veinsmobility totalCO2Emission 191.0727696639
scalar RSUExampleScenario.node[20].appl generatedWSMs 0
scalar RSUExampleScenario.node[20].appl receivedWSMs 0
scalar RSUExampleScenario.node[20].appl generatedBSMs 1055
scalar RSUExampleScenario.node[20].appl receivedBSMs 64024
scalar RSUExampleScenario.node[20].appl generatedWSAs 0
scalar RSUExampleScenario.node[20].appl receivedWSAs 0
scalar RSUExampleScenario.node[20].nic.phy80211p busyTime 0.073775924170716
scalar RSUExampleScenario.node[20].nic.mac1609_4 ReceivedUnicastPackets 0
scalar RSUExampleScenario.node[20].nic.mac1609_4 ReceivedBroadcasts 64024
scalar RSUExampleScenario.node[20].nic.mac1609_4 SentPackets 1055
scalar RSUExampleScenario.node[20].nic.mac1609_4 SentAcknowledgements 0
scalar RSUExampleScenario.node[20].nic.mac1609_4 RetriesExceeded 0
scalar RSUExampleScenario.node[20].nic.mac1609_4 SNIRLostPackets 10816
scalar RSUExampleScenario.node[20].nic.mac1609_4 RXTXLostPackets 0
scalar RSUExampleScenario.node[20].nic.mac1609_4 TotalLostPackets 10816
scalar RSUExampleScenario.node[20].nic.mac1609_4 DroppedPacketsInMac 0
scalar RSUExampleScenario.node[20].nic.mac1609_4 TooLittleTime 0
scalar RSUExampleScenario.node[20].nic.mac1609_4 TimesIntoBackoff 1233
scalar RSUExampleScenario.node[20].nic.mac1609_4 SlotsBackoff 1824
scalar RSUExampleScenario.node[20].nic.mac1609_4 NumInternalContention 0
scalar RSUExampleScenario.node[20].nic.mac1609_4 totalBusyTime 7.832568172763
scalar RSUExampleScenario.node[20].nic.mac1609_4 retriesExceeded:count 0
attr source org_car2x_veins_modules_mac_sigRetriesExceeded
scalar RSUExampleScenario.node[20].nic.mac1609_4 sentAcks:count 0
attr source org_car2x_veins_modules_mac_sigSentAck
scalar RSUExampleScenario.node[20].nic.mac1609_4 sentPackets:count 1055
attr source org_car2x_veins_modules_mac_sigSentPacket
scalar RSUExampleScenario.node[20].nic.mac1609_4 collisions:count 0
attr source org_car2x_veins_modules_mac_sigCollision
scalar RSUExampleScenario.node[20].nic.mac1609_4 channelBusy:timeavg 0.074242352348563
attr source org_car2x_veins_modules_mac_sigChannelBusy
scalar RSUExampleScenario.node[20].veinsmobility startTime 14.5
scalar RSUExampleScenario.node[20].veinsmobility totalTime 105.5
scalar RSUExampleScenario.node[20].veinsmobility stopTime 120
scalar RSUExampleScenario.node[20].veinsmobility minSpeed 2.9293233827927
scalar RSUExampleScenario.node[20].veinsmobility maxSpeed 9.1732585112444
scalar RSUExampleScenario.node[20].veinsmobility totalDistance 900.10614140038
scalar RSUExampleScenario.node[20].veinsmobility totalCO2Emission 212.94196373758
scalar RSUExampleScenario.node[21].appl generatedWSMs 0
scalar RSUExampleScenario.node[21].appl receivedWSMs 0
scalar RSUExampleScenario.node[21].appl generatedBSMs 1053
scalar RSUExampleScenario.node[21].appl receivedBSMs 65983
scalar RSUExampleScenario.node[21].appl generatedWSAs 0
scalar RSUExampleScenario.node[21].appl receivedWSAs 0
scalar RSUExampleScenario.node[21].nic.phy80211p busyTime 0.073876543209976
scalar RSUExampleScenario.node[21].nic.mac1609_4 ReceivedUnicastPackets 0
scalar RSUExampleScenario.node[21].nic.mac1609_4 ReceivedBroadcasts 65983
scalar RSUExampleScenario.node[21].nic.mac1609_4 SentPackets 1053
scalar RSUExampleScenario.node[21].nic.mac1609_4 SentAcknowledgements 0
scalar RSUExampleScenario.node[21].nic.mac1609_4 RetriesExceeded 0
scalar RSUExampleScenario.node[21].nic.mac1609_4 SNIRLostPackets 8817
scalar RSUExampleScenario.node[21].nic.mac1609_4 RXTXLostPackets 0
scalar RSUExampleScenario.node[21].nic.mac1609_4 TotalLostPackets 8817
scalar RSUExampleScenario.node[21].nic.mac1609_4 DroppedPacketsInMac 0
scalar RSUExampleScenario.node[21].nic.mac1609_4 TooLittleTime 0
scalar RSUExampleScenario.node[21].nic.mac1609_4 TimesIntoBackoff 1053
scalar RSUExampleScenario.node[21].nic.mac1609_4 SlotsBackoff 1665
scalar RSUExampleScenario.node[21].nic.mac1609_4 NumInternalContention 0
scalar RSUExampleScenario.node[21].nic.mac1609_4 totalBusyTime 7.828197267189
scalar RSUExampleScenario.node[21].nic.mac1609_4 retriesExceeded:count 0
attr source org_car2x_veins_modules_mac_sigRetriesExceeded
scalar RSUExampleScenario.node[21].nic.mac1609_4 sentAcks:count 0
attr source org_car2x_veins_modules_mac_sigSentAck
scalar RSUExampleScenario.node[21].nic.mac1609_4 sentPackets:count 1053
attr source org_car2x_veins_modules_mac_sigSentPacket
scalar RSUExampleScenario.node[21].nic.mac1609_4 collisions:count 0
attr source org_car2x_veins_modules_mac_sigCollision
scalar RSUExampleScenario.node[21].nic.mac1609_4 channelBusy:timeavg 0.074341854389358
attr source org_car2x_veins_modules_mac_sigChannelBusy
scalar RSUExampleScenario.node[21].veinsmobility startTime 14.7
scalar RSUExampleScenario.node[21].veinsmobility totalTime 105.3
scalar RSUExampleScenario.node[21].veinsmobility stopTime 120
scalar RSUExampleScenario.node[21].veinsmobility minSpeed 2.5458907079259
scalar RSUExampleScenario.node[21].veinsmobility maxSpeed 7.3088963563189
scalar RSUExampleScenario.node[21].veinsmobility totalDistance 741.21175603981
scalar RSUExampleScenario.node[21].veinsmobility totalCO2Emission 189.20381492082
scalar RSUExampleScenario.node[22].appl generatedWSMs 0
scalar RSUExampleScenario.node[22].appl receivedWSMs 0
scalar RSUExampleScenario.node[22].appl generatedBSMs 1037
scalar RSUExampleScenario.node[22].appl receivedBSMs 64030
scalar RSUExampleScenario.node[22].appl generatedWSAs 0
scalar RSUExampleScenario.node[22].appl receivedWSAs 0
scalar RSUExampleScenario.node[22].nic.phy80211p busyTime 0.074679421408008
scalar RSUExampleScenario.node[22].nic.mac1609_4 ReceivedUnicastPackets 0
scalar RSUExampleScenario.node[22].nic.mac1609_4 ReceivedBroadcasts 64030
scalar RSUExampleScenario.node[22].nic.mac1609_4 SentPackets 1037
scalar RSUExampleScenario.node[22].nic.mac1609_4 SentAcknowledgements 0
scalar RSUExampleScenario.node[22].nic.mac1609_4 RetriesExceeded 0
scalar RSUExampleScenario.node[22].nic.mac1609_4 SNIRLostPackets 10434
scalar RSUExampleScenario.node[22].nic.mac1609_4 RXTXLostPackets 0
scalar RSUExampleScenario.node[22].nic.mac1609_4 TotalLostPackets 10434
scalar RSUExampleScenario.node[22].nic.mac1609_4 DroppedPacketsInMac 0
scalar RSUExampleScenario.node[22].nic.mac1609_4 TooLittleTime 0
scalar RSUExampleScenario.node[22].nic.mac1609_4 TimesIntoBackoff 1037
scalar RSUExampleScenario.node[22].nic.mac1609_4 SlotsBackoff 1516
scalar RSUExampleScenario.node[22].nic.mac1609_4 NumInternalContention 0
scalar RSUExampleScenario.node[22].nic.mac1609_4 totalBusyTime 7.79157363734
scalar RSUExampleScenario.node[22].nic.mac1609_4 retriesExceeded:count 0
attr source org_car2x_veins_modules_mac_sigRetriesExceeded
scalar RSUExampleScenario.node[22].nic.mac1609_4 sentAcks:count 0
attr source org_car2x_veins_modules_mac_sigSentAck
scalar RSUExampleScenario.node[22].nic.mac1609_4 sentPackets:count 1037
attr source org_car2x_veins_modules_mac_sigSentPacket
scalar RSUExampleScenario.node[22].nic.mac1609_4 collisions:count 0
attr source org_car2x_veins_modules_mac_sigCollision
scalar RSUExampleScenario.node[22].nic.mac1609_4 channelBusy:timeavg 0.075135714921411
attr source org_car2x_veins_modules_mac_sigChannelBusy
scalar RSUExampleScenario.node[22].veinsmobility startTime 16.3
scalar RSUExampleScenario.node[22].veinsmobility totalTime 103.7
scalar RSUExampleScenario.node[22].veinsmobility stopTime 120
scalar RSUExampleScenario.node[22].veinsmobility minSpeed 2.9520069802369
scalar RSUExampleScenario.node[22].veinsmobility maxSpeed 9.1080385407516
scalar RSUExampleScenario.node[22].veinsmobility totalDistance 883.45008025949
scalar RSUExampleScenario.node[22].veinsmobility totalCO2Emission 210.56925675482
scalar RSUExampleScenario.node[23].appl generatedWSMs 0
scalar RSUExampleScenario.node[23].appl receivedWSMs 0
scalar RSUExampleScenario.node[23].appl generatedBSMs 1033
scalar RSUExampleScenario.node[23].appl receivedBSMs 65674
scalar RSUExampleScenario.node[23].appl generatedWSAs 0
scalar RSUExampleScenario.node[23].appl receivedWSAs 0
scalar RSUExampleScenario.node[23].nic.phy80211p busyTime 0.074880000000101
scalar RSUExampleScenario.node[23].nic.mac1609_4 ReceivedUnicastPackets 0
scalar RSUExampleScenario.node[23].nic.mac1609_4 ReceivedBroadcasts 65674
scalar RSUExampleScenario.node[23].nic.mac1609_4 SentPackets 1033
scalar RSUExampleScenario.node[23].nic.mac1609_4 SentAcknowledgements 0
scalar RSUExampleScenario.node[23].nic.mac1609_4 RetriesExceeded 0
scalar RSUExampleScenario.node[23].nic.mac1609_4 SNIRLostPackets 8702
scalar RSUExampleScenario.node[23].nic.mac1609_4 RXTXLostPackets 0
scalar RSUExampleScenario.node[23].nic.mac1609_4 TotalLostPackets 8702
scalar RSUExampleScenario.node[23].nic.mac1609_4 DroppedPacketsInMac 0
scalar RSUExampleScenario.node[23].nic.mac1609_4 TooLittleTime 0
scalar RSUExampleScenario.node[23].nic.mac1609_4 TimesIntoBackoff 1033
scalar RSUExampleScenario.node[23].nic.mac1609_4 SlotsBackoff 1574
scalar RSUExampleScenario.node[23].nic.mac1609_4 NumInternalContention 0
scalar RSUExampleScenario.node[23].nic.mac1609_4 totalBusyTime 7.782001137635
scalar RSUExampleScenario.node[23].nic.mac1609_4 retriesExceeded:count 0
attr source org_car2x_veins_modules_mac_sigRetriesExceeded
scalar RSUExampleScenario.node[23].nic.mac1609_4 sentAcks:count 0
attr source org_car2x_veins_modules_mac_sigSentAck
scalar RSUExampleScenario.node[23].nic.mac1609_4 sentPackets:count 1033
attr source org_car2x_veins_modules_mac_sigSentPacket
scalar RSUExampleScenario.node[23].nic.mac1609_4 collisions:count 0
attr source org_car2x_veins_modules_mac_sigCollision
scalar RSUExampleScenario.node[23].nic.mac1609_4 channelBusy:timeavg 0.07533398971583
attr source org_car2x_veins_modules_mac_sigChannelBusy
scalar RSUExampleScenario.node[23].veinsmobility startTime 16.7
scalar RSUExampleScenario.node[23].veinsmobility totalTime 103.3
scalar RSUExampleScenario.node[23].veinsmobility stopTime 120
scalar RSUExampleScenario.node[23].veinsmobility minSpeed 2.6858637833434
scalar RSUExampleScenario.node[23].veinsmobility maxSpeed 7.3062994778034
scalar RSUExampleScenario.node[23].veinsmobility totalDistance 726.34375032627
scalar RSUExampleScenario.node[23].veinsmobility totalCO2Emission 187.70522208775
scalar RSUExampleScenario.node[24].appl generatedWSMs 0
scalar RSUExampleScenario.node[24].appl receivedWSMs 0
scalar RSUExampleScenario.node[24].appl generatedBSMs 1018
scalar RSUExampleScenario.node[24].appl receivedBSMs 64028
scalar RSUExampleScenario.node[24].appl generatedWSAs 0
scalar RSUExampleScenario.node[24].appl receivedWSAs 0
scalar RSUExampleScenario.node[24].nic.phy80211p busyTime 0.075630884086545
scalar RSUExampleScenario.node[24].nic.mac1609_4 ReceivedUnicastPackets 0
scalar RSUExampleScenario.node[24].nic.mac1609_4 ReceivedBroadcasts 64028
scalar RSUExampleScenario.node[24].nic.mac1609_4 SentPackets 1018
scalar RSUExampleScenario.node[24].nic.mac1609_4 SentAcknowledgements 0
scalar RSUExampleScenario.node[24].nic.mac1609_4 RetriesExceeded 0
scalar RSUExampleScenario.node[24].nic.mac1609_4 SNIRLostPackets 10003
scalar RSUExampleScenario.node[24].nic.mac1609_4 RXTXLostPackets 0
scalar RSUExampleScenario.node[24].nic.mac1609_4 TotalLostPackets 10003
scalar RSUExampleScenario.node[24].nic.mac1609_4 DroppedPacketsInMac 0
scalar RSUExampleScenario.node[24].nic.mac1609_4 TooLittleTime 0
scalar RSUExampleScenario.node[24].nic.mac1609_4 TimesIntoBackoff 1018
scalar RSUExampleScenario.node[24].nic.mac1609_4 SlotsBackoff 1539
scalar RSUExampleScenario.node[24].nic.mac1609_4 NumInternalContention 0
scalar RSUExampleScenario.node[24].nic.mac1609_4 totalBusyTime 7.744546
scalar RSUExampleScenario.node[24].nic.mac1609_4 retriesExceeded:count 0
attr source org_car2x_veins_modules_mac_sigRetriesExceeded
scalar RSUExampleScenario.node[24].nic.mac1609_4 sentAcks:count 0
attr source org_car2x_veins_modules_mac_sigSentAck
scalar RSUExampleScenario.node[24].nic.mac1609_4 sentPackets:count 1018
attr source org_car2x_veins_modules_mac_sigSentPacket
scalar RSUExampleScenario.node[24].nic.mac1609_4 collisions:count 0
attr source org_car2x_veins_modules_mac_sigCollision
scalar RSUExampleScenario.node[24].nic.mac1609_4 channelBusy:timeavg 0.076076090373381
attr source org_car2x_veins_modules_mac_sigChannelBusy
scalar RSUExampleScenario.node[24].veinsmobility startTime 18.2
scalar RSUExampleScenario.node[24].veinsmobility totalTime 101.8
scalar RSUExampleScenario.node[24].veinsmobility stopTime 120
scalar RSUExampleScenario.node[24].veinsmobility minSpeed 3.087974205143
scalar RSUExampleScenario.node[24].veinsmobility maxSpeed 9.0873509421513
scalar RSUExampleScenario.node[24].veinsmobility totalDistance 866.79508194403
scalar RSUExampleScenario.node[24].veinsmobility totalCO2Emission 208.56084495467
scalar RSUExampleScenario.node[25].appl generatedWSMs 0
scalar RSUExampleScenario.node[25].appl receivedWSMs 0
scalar RSUExampleScenario.node[25].appl generatedBSMs 1013
scalar RSUExampleScenario.node[25].appl receivedBSMs 65419
scalar RSUExampleScenario.node[25].appl generatedWSAs 0
scalar RSUExampleScenario.node[25].appl receivedWSAs 0
scalar RSUExampleScenario.node[25].nic.phy80211p busyTime 0.075880987166932
scalar RSUExampleScenario.node[25].nic.mac1609_4 ReceivedUnicastPackets 0
scalar RSUExampleScenario.node[25].nic.mac1609_4 ReceivedBroadcasts 65419
scalar RSUExampleScenario.node[25].nic.mac1609_4 SentPackets 1013
scalar RSUExampleScenario.node[25].nic.mac1609_4 SentAcknowledgements 0
scalar RSUExampleScenario.node[25].nic.mac1609_4 RetriesExceeded 0
scalar RSUExampleScenario.node[25].nic.mac1609_4 SNIRLostPackets 8492
scalar RSUExampleScenario.node[25].nic.mac1609_4 RXTXLostPackets 0
scalar RSUExampleScenario.node[25].nic.mac1609_4 TotalLostPackets 8492
scalar RSUExampleScenario.node[25].nic.mac1609_4 DroppedPacketsInMac 0
scalar RSUExampleScenario.node[25].nic.mac1609_4 TooLittleTime 0
scalar RSUExampleScenario.node[25].nic.mac1609_4 TimesIntoBackoff 1013
scalar RSUExampleScenario.node[25].nic.mac1609_4 SlotsBackoff 1468
scalar RSUExampleScenario.node[25].nic.mac1609_4 NumInternalContention 0
scalar RSUExampleScenario.node[25].nic.mac1609_4 totalBusyTime 7.731541576499
scalar RSUExampleScenario.node[25].nic.mac1609_4 retriesExceeded:count 0
attr source org_car2x_veins_modules_mac_sigRetriesExceeded
scalar RSUExampleScenario.node[25].nic.mac1609_4 sentAcks:count 0
attr source org_car2x_veins_modules_mac_sigSentAck
scalar RSUExampleScenario.node[25].nic.mac1609_4 sentPackets:count 1013
attr source org_car2x_veins_modules_mac_sigSentPacket
scalar RSUExampleScenario.node[25].nic.mac1609_4 collisions:count 0
attr source org_car2x_veins_modules_mac_sigCollision
scalar RSUExampleScenario.node[25].nic.mac1609_4 channelBusy:timeavg 0.076323213983308
attr source org_car2x_veins_modules_mac_sigChannelBusy
scalar RSUExampleScenario.node[25].veinsmobility startTime 18.7
scalar RSUExampleScenario.node[25].veinsmobility totalTime 101.3
scalar RSUExampleScenario.node[25].veinsmobility stopTime 120
scalar RSUExampleScenario.node[25].veinsmobility minSpeed 2.6771637356831
scalar RSUExampleScenario.node[25].veinsmobility maxSpeed 7.3116002485203
scalar RSUExampleScenario.node[25].veinsmobility totalDistance 711.44226342755
scalar RSUExampleScenario.node[25].veinsmobility totalCO2Emission 185.14843884028
scalar RSUExampleScenario.node[26].appl generatedWSMs 0
scalar RSUExampleScenario.node[26].appl receivedWSMs 0
scalar RSUExampleScenario.node[26].appl generatedBSMs 1000
scalar RSUExampleScenario.node[26].appl receivedBSMs 65680
scalar RSUExampleScenario.node[26].appl generatedWSAs 0
scalar RSUExampleScenario.node[26].appl receivedWSAs 0
scalar RSUExampleScenario.node[26].nic.phy80211p busyTime 0.076529440000101
scalar RSUExampleScenario.node[26].nic.mac1609_4 ReceivedUnicastPackets 0
scalar RSUExampleScenario.node[26].nic.mac1609_4 ReceivedBroadcasts 65680
scalar RSUExampleScenario.node[26].nic.mac1609_4 SentPackets 1000
scalar RSUExampleScenario.node[26].nic.mac1609_4 SentAcknowledgements 0
scalar RSUExampleScenario.node[26].nic.mac1609_4 RetriesExceeded 0
scalar RSUExampleScenario.node[26].nic.mac1609_4 SNIRLostPackets 7906
scalar RSUExampleScenario.node[26].nic.mac1609_4 RXTXLostPackets 0
scalar RSUExampleScenario.node[26].nic.mac1609_4 TotalLostPackets 7906
scalar RSUExampleScenario.node[26].nic.mac1609_4 DroppedPacketsInMac 0
scalar RSUExampleScenario.node[26].nic.mac1609_4 TooLittleTime 0
scalar RSUExampleScenario.node[26].nic.mac1609_4 TimesIntoBackoff 1283
scalar RSUExampleScenario.node[26].nic.mac1609_4 SlotsBackoff 1948
scalar RSUExampleScenario.node[26].nic.mac1609_4 NumInternalContention 0
scalar RSUExampleScenario.node[26].nic.mac1609_4 totalBusyTime 7.696376
scalar RSUExampleScenario.node[26].nic.mac1609_4 retriesExceeded:count 0
attr source org_car2x_veins_modules_mac_sigRetriesExceeded
scalar RSUExampleScenario.node[26].nic.mac1609_4 sentAcks:count 0
attr source org_car2x_veins_modules_mac_sigSentAck
scalar RSUExampleScenario.node[26].nic.mac1609_4 sentPackets:count 1000
attr source org_car2x_veins_modules_mac_sigSentPacket
scalar RSUExampleScenario.node[26].nic.mac1609_4 collisions:count 0
attr source org_car2x_veins_modules_mac_sigCollision
scalar RSUExampleScenario.node[26].nic.mac1609_4 channelBusy:timeavg 0.0769637600001
attr source org_car2x_veins_modules_mac_sigChannelBusy
scalar RSUExampleScenario.node[26].veinsmobility startTime 20
scalar RSUExampleScenario.node[26].veinsmobility totalTime 100
scalar RSUExampleScenario.node[26].veinsmobility stopTime 120
scalar RSUExampleScenario.node[26].veinsmobility minSpeed 2.877050386545
scalar RSUExampleScenario.node[26].veinsmobility maxSpeed 7.4923957375416
scalar RSUExampleScenario.node[26].veinsmobility totalDistance 732.70047941725
scalar RSUExampleScenario.node[26].veinsmobility totalCO2Emission 169.35119344611
scalar RSUExampleScenario.node[27].appl generatedWSMs 0
scalar RSUExampleScenario.node[27].appl receivedWSMs 0
scalar RSUExampleScenario.node[27].appl generatedBSMs 993
scalar RSUExampleScenario.node[27].appl receivedBSMs 65087
scalar RSUExampleScenario.node[27].appl generatedWSAs 0
scalar RSUExampleScenario.node[27].appl receivedWSAs 0
scalar RSUExampleScenario.node[27].nic.phy80211p busyTime 0.076878308157201
scalar RSUExampleScenario.node[27].nic.mac1609_4 ReceivedUnicastPackets 0
scalar RSUExampleScenario.node[27].nic.mac1609_4 ReceivedBroadcasts 65087
scalar RSUExampleScenario.node[27].nic.mac1609_4 SentPackets 993
scalar RSUExampleScenario.node[27].nic.mac1609_4 SentAcknowledgements 0
scalar RSUExampleScenario.node[27].nic.mac1609_4 RetriesExceeded 0
scalar RSUExampleScenario.node[27].nic.mac1609_4 SNIRLostPackets 8317
scalar RSUExampleScenario.node[27].nic.mac1609_4 RXTXLostPackets 0
scalar RSUExampleScenario.node[27].nic.mac1609_4 TotalLostPackets 8317
scalar RSUExampleScenario.node[27].nic.mac1609_4 DroppedPacketsInMac 0
scalar RSUExampleScenario.node[27].nic.mac1609_4 TooLittleTime 0
scalar RSUExampleScenario.node[27].nic.mac1609_4 TimesIntoBackoff 993
scalar RSUExampleScenario.node[27].nic.mac1609_4 SlotsBackoff 1458
scalar RSUExampleScenario.node[27].nic.mac1609_4 NumInternalContention 0
scalar RSUExampleScenario.node[27].nic.mac1609_4 totalBusyTime 7.676713746868
scalar RSUExampleScenario.node[27].nic.mac1609_4 retriesExceeded:count 0
attr source org_car2x_veins_modules_mac_sigRetriesExceeded
scalar RSUExampleScenario.node[27].nic.mac1609_4 sentAcks:count 0
attr source org_car2x_veins_modules_mac_sigSentAck
scalar RSUExampleScenario.node[27].nic.mac1609_4 sentPackets:count 993
attr source org_car2x_veins_modules_mac_sigSentPacket
scalar RSUExampleScenario.node[27].nic.mac1609_4 collisions:count 0
attr source org_car2x_veins_modules_mac_sigCollision
scalar RSUExampleScenario.node[27].nic.mac1609_4 channelBusy:timeavg 0.077308295537542
attr source org_car2x_veins_modules_mac_sigChannelBusy
scalar RSUExampleScenario.node[27].veinsmobility startTime 20.7
scalar RSUExampleScenario.node[27].veinsmobility totalTime 99.3
scalar RSUExampleScenario.node[27].veinsmobility stopTime 120
scalar RSUExampleScenario.node[27].veinsmobility minSpeed 2.6468930156189
scalar RSUExampleScenario.node[27].veinsmobility maxSpeed 7.3378667937536
scalar RSUExampleScenario.node[27].veinsmobility totalDistance 696.56791577018
scalar RSUExampleScenario.node[27].veinsmobility totalCO2Emission 181.08404354827
scalar RSUExampleScenario.node[28].appl generatedWSMs 0
scalar RSUExampleScenario.node[28].appl receivedWSMs 0
scalar RSUExampleScenario.node[28].appl generatedBSMs 981
scalar RSUExampleScenario.node[28].appl receivedBSMs 65302
scalar RSUExampleScenario.node[28].appl generatedWSAs 0
scalar RSUExampleScenario.node[28].appl receivedWSAs 0
scalar RSUExampleScenario.node[28].nic.phy80211p busyTime 0.0774752293579
scalar RSUExampleScenario.node[28].nic.mac1609_4 ReceivedUnicastPackets 0
scalar RSUExampleScenario.node[28].nic.mac1609_4 ReceivedBroadcasts 65302
scalar RSUExampleScenario.node[28].nic.mac1609_4 SentPackets 981
scalar RSUExampleScenario.node[28].nic.mac1609_4 SentAcknowledgements 0
scalar RSUExampleScenario.node[28].nic.mac1609_4 RetriesExceeded 0
scalar RSUExampleScenario.node[28].nic.mac1609_4 SNIRLostPackets 7778
scalar RSUExampleScenario.node[28].nic.mac1609_4 RXTXLostPackets 0
scalar RSUExampleScenario.node[28].nic.mac1609_4 TotalLostPackets 7778
scalar RSUExampleScenario.node[28].nic.mac1609_4 DroppedPacketsInMac 0
scalar RSUExampleScenario.node[28].nic.mac1609_4 TooLittleTime 0
scalar RSUExampleScenario.node[28].nic.mac1609_4 TimesIntoBackoff 981
scalar RSUExampleScenario.node[28].nic.mac1609_4 SlotsBackoff 1457
scalar RSUExampleScenario.node[28].nic.mac1609_4 NumInternalContention 0
scalar RSUExampleScenario.node[28].nic.mac1609_4 totalBusyTime 7.641757
scalar RSUExampleScenario.node[28].nic.mac1609_4 retriesExceeded:count 0
attr source org_car2x_veins_modules_mac_sigRetriesExceeded
scalar RSUExampleScenario.node[28].nic.mac1609_4 sentAcks:count 0
attr source org_car2x_veins_modules_mac_sigSentAck
scalar RSUExampleScenario.node[28].nic.mac1609_4 sentPackets:count 981
attr source org_car2x_veins_modules_mac_sigSentPacket
scalar RSUExampleScenario.node[28].nic.mac1609_4 collisions:count 0
attr source org_car2x_veins_modules_mac_sigCollision
scalar RSUExampleScenario.node[28].nic.mac1609_4 channelBusy:timeavg 0.07789762487268
attr source org_car2x_veins_modules_mac_sigChannelBusy
scalar RSUExampleScenario.node[28].veinsmobility startTime 21.9
scalar RSUExampleScenario.node[28].veinsmobility totalTime 98.1
scalar RSUExampleScenario.node[28].veinsmobility stopTime 120
scalar RSUExampleScenario.node[28].veinsmobility minSpeed 3.108095388552
scalar RSUExampleScenario.node[28].veinsmobility maxSpeed 7.5376052598045
scalar RSUExampleScenario.node[28].veinsmobility totalDistance 717.54801519017
scalar RSUExampleScenario.node[28].veinsmobility totalCO2Emission 172.42029953021
scalar RSUExampleScenario.node[29].appl generatedWSMs 0
scalar RSUExampleScenario.node[29].appl receivedWSMs 0
scalar RSUExampleScenario.node[29].appl generatedBSMs 973
scalar RSUExampleScenario.node[29].appl receivedBSMs 64704
scalar RSUExampleScenario.node[29].appl generatedWSAs 0
scalar RSUExampleScenario.node[29].appl receivedWSAs 0
scalar RSUExampleScenario.node[29].nic.phy80211p busyTime 0.077872805755497
scalar RSUExampleScenario.node[29].nic.mac1609_4 ReceivedUnicastPackets 0
scalar RSUExampleScenario.node[29].nic.mac1609_4 ReceivedBroadcasts 64704
scalar RSUExampleScenario.node[29].nic.mac1609_4 SentPackets 973
scalar RSUExampleScenario.node[29].nic.mac1609_4 SentAcknowledgements 0
scalar RSUExampleScenario.node[29].nic.mac1609_4 RetriesExceeded 0
scalar RSUExampleScenario.node[29].nic.mac1609_4 SNIRLostPackets 8152
scalar RSUExampleScenario.node[29].nic.mac1609_4 RXTXLostPackets 0
scalar RSUExampleScenario.node[29].nic.mac1609_4 TotalLostPackets 8152
scalar RSUExampleScenario.node[29].nic.mac1609_4 DroppedPacketsInMac 0
scalar RSUExampleScenario.node[29].nic.mac1609_4 TooLittleTime 0
scalar RSUExampleScenario.node[29].nic.mac1609_4 TimesIntoBackoff 973
scalar RSUExampleScenario.node[29].nic.mac1609_4 SlotsBackoff 1462
scalar RSUExampleScenario.node[29].nic.mac1609_4 NumInternalContention 0
scalar RSUExampleScenario.node[29].nic.mac1609_4 totalBusyTime 7.617621946345
scalar RSUExampleScenario.node[29].nic.mac1609_4 retriesExceeded:count 0
attr source org_car2x_veins_modules_mac_sigRetriesExceeded
scalar RSUExampleScenario.node[29].nic.mac1609_4 sentAcks:count 0
attr source org_car2x_veins_modules_mac_sigSentAck
scalar RSUExampleScenario.node[29].nic.mac1609_4 sentPackets:count 973
attr source org_car2x_veins_modules_mac_sigSentPacket
scalar RSUExampleScenario.node[29].nic.mac1609_4 collisions:count 0
attr source org_car2x_veins_modules_mac_sigCollision
scalar RSUExampleScenario.node[29].nic.mac1609_4 channelBusy:timeavg 0.078290050836123
attr source org_car2x_veins_modules_mac_sigChannelBusy
scalar RSUExampleScenario.node[29].veinsmobility startTime 22.7
scalar RSUExampleScenario.node[29].veinsmobility totalTime 97.3
scalar RSUExampleScenario.node[29].veinsmobility stopTime 120
scalar RSUExampleScenario.node[29].veinsmobility minSpeed 2.6620003018029
scalar RSUExampleScenario.node[29].veinsmobility maxSpeed 7.3115973313021
scalar RSUExampleScenario.node[29].veinsmobility totalDistance 681.68711205453
scalar RSUExampleScenario.node[29].veinsmobility totalCO2Emission 174.9319683381
scalar RSUExampleScenario.node[30].appl generatedWSMs 0
scalar RSUExampleScenario.node[30].appl receivedWSMs 0
scalar RSUExampleScenario.node[30].appl generatedBSMs 963
scalar RSUExampleScenario.node[30].appl receivedBSMs 64809
scalar RSUExampleScenario.node[30].appl generatedWSAs 0
scalar RSUExampleScenario.node[30].appl receivedWSAs 0
scalar RSUExampleScenario.node[30].nic.phy80211p busyTime 0.078368265836031
scalar RSUExampleScenario.node[30].nic.mac1609_4 ReceivedUnicastPackets 0
scalar RSUExampleScenario.node[30].nic.mac1609_4 ReceivedBroadcasts 64809
scalar RSUExampleScenario.node[30].nic.mac1609_4 SentPackets 963
scalar RSUExampleScenario.node[30].nic.mac1609_4 SentAcknowledgements 0
scalar RSUExampleScenario.node[30].nic.mac1609_4 RetriesExceeded 0
scalar RSUExampleScenario.node[30].nic.mac1609_4 SNIRLostPackets 7757
scalar RSUExampleScenario.node[30].nic.mac1609_4 RXTXLostPackets 0
scalar RSUExampleScenario.node[30].nic.mac1609_4 TotalLostPackets 7757
scalar RSUExampleScenario.node[30].nic.mac1609_4 DroppedPacketsInMac 0
scalar RSUExampleScenario.node[30].nic.mac1609_4 TooLittleTime 0
scalar RSUExampleScenario.node[30].nic.mac1609_4 TimesIntoBackoff 963
scalar RSUExampleScenario.node[30].nic.mac1609_4 SlotsBackoff 1442
scalar RSUExampleScenario.node[30].nic.mac1609_4 NumInternalContention 0
scalar RSUExampleScenario.node[30].nic.mac1609_4 totalBusyTime 7.586411
scalar RSUExampleScenario.node[30].nic.mac1609_4 retriesExceeded:count 0
attr source org_car2x_veins_modules_mac_sigRetriesExceeded
scalar RSUExampleScenario.node[30].nic.mac1609_4 sentAcks:count 0
attr source org_car2x_veins_modules_mac_sigSentAck
scalar RSUExampleScenario.node[30].nic.mac1609_4 sentPackets:count 963
attr source org_car2x_veins_modules_mac_sigSentPacket
scalar RSUExampleScenario.node[30].nic.mac1609_4 collisions:count 0
attr source org_car2x_veins_modules_mac_sigCollision
scalar RSUExampleScenario.node[30].nic.mac1609_4 channelBusy:timeavg 0.078778930425854
attr source org_car2x_veins_modules_mac_sigChannelBusy
scalar RSUExampleScenario.node[30].veinsmobility startTime 23.7
scalar RSUExampleScenario.node[30].veinsmobility totalTime 96.3
[...]
scalar RSUExampleScenario.node[116].nic.mac1609_4 ReceivedUnicastPackets 0
scalar RSUExampleScenario.node[116].nic.mac1609_4 ReceivedBroadcasts 5374
scalar RSUExampleScenario.node[116].nic.mac1609_4 SentPackets 76
scalar RSUExampleScenario.node[116].nic.mac1609_4 SentAcknowledgements 0
scalar RSUExampleScenario.node[116].nic.mac1609_4 RetriesExceeded 0
scalar RSUExampleScenario.node[116].nic.mac1609_4 SNIRLostPackets 3244
scalar RSUExampleScenario.node[116].nic.mac1609_4 RXTXLostPackets 0
scalar RSUExampleScenario.node[116].nic.mac1609_4 TotalLostPackets 3244
scalar RSUExampleScenario.node[116].nic.mac1609_4 DroppedPacketsInMac 0
scalar RSUExampleScenario.node[116].nic.mac1609_4 TooLittleTime 0
scalar RSUExampleScenario.node[116].nic.mac1609_4 TimesIntoBackoff 76
scalar RSUExampleScenario.node[116].nic.mac1609_4 SlotsBackoff 103
scalar RSUExampleScenario.node[116].nic.mac1609_4 NumInternalContention 0
scalar RSUExampleScenario.node[116].nic.mac1609_4 totalBusyTime 0.895204
scalar RSUExampleScenario.node[116].nic.mac1609_4 retriesExceeded:count 0
attr source org_car2x_veins_modules_mac_sigRetriesExceeded
scalar RSUExampleScenario.node[116].nic.mac1609_4 sentAcks:count 0
attr source org_car2x_veins_modules_mac_sigSentAck
scalar RSUExampleScenario.node[116].nic.mac1609_4 sentPackets:count 76
attr source org_car2x_veins_modules_mac_sigSentPacket
scalar RSUExampleScenario.node[116].nic.mac1609_4 collisions:count 0
attr source org_car2x_veins_modules_mac_sigCollision
scalar RSUExampleScenario.node[116].nic.mac1609_4 channelBusy:timeavg 0.11778999999999
attr source org_car2x_veins_modules_mac_sigChannelBusy
scalar RSUExampleScenario.node[116].veinsmobility startTime 112.4
scalar RSUExampleScenario.node[116].veinsmobility totalTime 7.6
scalar RSUExampleScenario.node[116].veinsmobility stopTime 120
scalar RSUExampleScenario.node[116].veinsmobility minSpeed 2.4453745388553
scalar RSUExampleScenario.node[116].veinsmobility maxSpeed 6.6630363464931
scalar RSUExampleScenario.node[116].veinsmobility totalDistance 40.445169394423
scalar RSUExampleScenario.node[116].veinsmobility totalCO2Emission 15.847965652721
scalar RSUExampleScenario.node[117].appl generatedWSMs 0
scalar RSUExampleScenario.node[117].appl receivedWSMs 0
scalar RSUExampleScenario.node[117].appl generatedBSMs 69
scalar RSUExampleScenario.node[117].appl receivedBSMs 5051
scalar RSUExampleScenario.node[117].appl generatedWSAs 0
scalar RSUExampleScenario.node[117].appl receivedWSAs 0
scalar RSUExampleScenario.node[117].nic.phy80211p busyTime 0.11785159420289
scalar RSUExampleScenario.node[117].nic.mac1609_4 ReceivedUnicastPackets 0
scalar RSUExampleScenario.node[117].nic.mac1609_4 ReceivedBroadcasts 5051
scalar RSUExampleScenario.node[117].nic.mac1609_4 SentPackets 69
scalar RSUExampleScenario.node[117].nic.mac1609_4 SentAcknowledgements 0
scalar RSUExampleScenario.node[117].nic.mac1609_4 RetriesExceeded 0
scalar RSUExampleScenario.node[117].nic.mac1609_4 SNIRLostPackets 2768
scalar RSUExampleScenario.node[117].nic.mac1609_4 RXTXLostPackets 22
scalar RSUExampleScenario.node[117].nic.mac1609_4 TotalLostPackets 2790
scalar RSUExampleScenario.node[117].nic.mac1609_4 DroppedPacketsInMac 0
scalar RSUExampleScenario.node[117].nic.mac1609_4 TooLittleTime 0
scalar RSUExampleScenario.node[117].nic.mac1609_4 TimesIntoBackoff 71
scalar RSUExampleScenario.node[117].nic.mac1609_4 SlotsBackoff 114
scalar RSUExampleScenario.node[117].nic.mac1609_4 NumInternalContention 0
scalar RSUExampleScenario.node[117].nic.mac1609_4 totalBusyTime 0.814077
scalar RSUExampleScenario.node[117].nic.mac1609_4 retriesExceeded:count 0
attr source org_car2x_veins_modules_mac_sigRetriesExceeded
scalar RSUExampleScenario.node[117].nic.mac1609_4 sentAcks:count 0
attr source org_car2x_veins_modules_mac_sigSentAck
scalar RSUExampleScenario.node[117].nic.mac1609_4 sentPackets:count 69
attr source org_car2x_veins_modules_mac_sigSentPacket
scalar RSUExampleScenario.node[117].nic.mac1609_4 collisions:count 0
attr source org_car2x_veins_modules_mac_sigCollision
scalar RSUExampleScenario.node[117].nic.mac1609_4 channelBusy:timeavg 0.11798217391304
attr source org_car2x_veins_modules_mac_sigChannelBusy
scalar RSUExampleScenario.node[117].veinsmobility startTime 113.1
scalar RSUExampleScenario.node[117].veinsmobility totalTime 6.9
scalar RSUExampleScenario.node[117].veinsmobility stopTime 120
scalar RSUExampleScenario.node[117].veinsmobility minSpeed 2.5869653817708
scalar RSUExampleScenario.node[117].veinsmobility maxSpeed 6.0277402714225
scalar RSUExampleScenario.node[117].veinsmobility totalDistance 33.947166781854
scalar RSUExampleScenario.node[117].veinsmobility totalCO2Emission 13.135628745111
scalar RSUExampleScenario.node[118].appl generatedWSMs 0
scalar RSUExampleScenario.node[118].appl receivedWSMs 0
scalar RSUExampleScenario.node[118].appl generatedBSMs 55
scalar RSUExampleScenario.node[118].appl receivedBSMs 3859
scalar RSUExampleScenario.node[118].appl generatedWSAs 0
scalar RSUExampleScenario.node[118].appl receivedWSAs 0
scalar RSUExampleScenario.node[118].nic.phy80211p busyTime 0.11861672727272
scalar RSUExampleScenario.node[118].nic.mac1609_4 ReceivedUnicastPackets 0
scalar RSUExampleScenario.node[118].nic.mac1609_4 ReceivedBroadcasts 3859
scalar RSUExampleScenario.node[118].nic.mac1609_4 SentPackets 55
scalar RSUExampleScenario.node[118].nic.mac1609_4 SentAcknowledgements 0
scalar RSUExampleScenario.node[118].nic.mac1609_4 RetriesExceeded 0
scalar RSUExampleScenario.node[118].nic.mac1609_4 SNIRLostPackets 2414
scalar RSUExampleScenario.node[118].nic.mac1609_4 RXTXLostPackets 0
scalar RSUExampleScenario.node[118].nic.mac1609_4 TotalLostPackets 2414
scalar RSUExampleScenario.node[118].nic.mac1609_4 DroppedPacketsInMac 0
scalar RSUExampleScenario.node[118].nic.mac1609_4 TooLittleTime 0
scalar RSUExampleScenario.node[118].nic.mac1609_4 TimesIntoBackoff 55
scalar RSUExampleScenario.node[118].nic.mac1609_4 SlotsBackoff 86
scalar RSUExampleScenario.node[118].nic.mac1609_4 NumInternalContention 0
scalar RSUExampleScenario.node[118].nic.mac1609_4 totalBusyTime 0.650991
scalar RSUExampleScenario.node[118].nic.mac1609_4 retriesExceeded:count 0
attr source org_car2x_veins_modules_mac_sigRetriesExceeded
scalar RSUExampleScenario.node[118].nic.mac1609_4 sentAcks:count 0
attr source org_car2x_veins_modules_mac_sigSentAck
scalar RSUExampleScenario.node[118].nic.mac1609_4 sentPackets:count 55
attr source org_car2x_veins_modules_mac_sigSentPacket
scalar RSUExampleScenario.node[118].nic.mac1609_4 collisions:count 0
attr source org_car2x_veins_modules_mac_sigCollision
scalar RSUExampleScenario.node[118].nic.mac1609_4 channelBusy:timeavg 0.11836199999999
attr source org_car2x_veins_modules_mac_sigChannelBusy
scalar RSUExampleScenario.node[118].veinsmobility startTime 114.5
scalar RSUExampleScenario.node[118].veinsmobility totalTime 5.5
scalar RSUExampleScenario.node[118].veinsmobility stopTime 120
scalar RSUExampleScenario.node[118].veinsmobility minSpeed 2.6661780157304
scalar RSUExampleScenario.node[118].veinsmobility maxSpeed 6.2398368954678
scalar RSUExampleScenario.node[118].veinsmobility totalDistance 27.324504549503
scalar RSUExampleScenario.node[118].veinsmobility totalCO2Emission 11.74093565655
scalar RSUExampleScenario.node[119].appl generatedWSMs 0
scalar RSUExampleScenario.node[119].appl receivedWSMs 0
scalar RSUExampleScenario.node[119].appl generatedBSMs 48
scalar RSUExampleScenario.node[119].appl receivedBSMs 3479
scalar RSUExampleScenario.node[119].appl generatedWSAs 0
scalar RSUExampleScenario.node[119].appl receivedWSAs 0
scalar RSUExampleScenario.node[119].nic.phy80211p busyTime 0.11853833333333
scalar RSUExampleScenario.node[119].nic.mac1609_4 ReceivedUnicastPackets 0
scalar RSUExampleScenario.node[119].nic.mac1609_4 ReceivedBroadcasts 3479
scalar RSUExampleScenario.node[119].nic.mac1609_4 SentPackets 48
scalar RSUExampleScenario.node[119].nic.mac1609_4 SentAcknowledgements 0
scalar RSUExampleScenario.node[119].nic.mac1609_4 RetriesExceeded 0
scalar RSUExampleScenario.node[119].nic.mac1609_4 SNIRLostPackets 1992
scalar RSUExampleScenario.node[119].nic.mac1609_4 RXTXLostPackets 11
scalar RSUExampleScenario.node[119].nic.mac1609_4 TotalLostPackets 2003
scalar RSUExampleScenario.node[119].nic.mac1609_4 DroppedPacketsInMac 0
scalar RSUExampleScenario.node[119].nic.mac1609_4 TooLittleTime 0
scalar RSUExampleScenario.node[119].nic.mac1609_4 TimesIntoBackoff 96
scalar RSUExampleScenario.node[119].nic.mac1609_4 SlotsBackoff 134
scalar RSUExampleScenario.node[119].nic.mac1609_4 NumInternalContention 0
scalar RSUExampleScenario.node[119].nic.mac1609_4 totalBusyTime 0.568824
scalar RSUExampleScenario.node[119].nic.mac1609_4 retriesExceeded:count 0
attr source org_car2x_veins_modules_mac_sigRetriesExceeded
scalar RSUExampleScenario.node[119].nic.mac1609_4 sentAcks:count 0
attr source org_car2x_veins_modules_mac_sigSentAck
scalar RSUExampleScenario.node[119].nic.mac1609_4 sentPackets:count 48
attr source org_car2x_veins_modules_mac_sigSentPacket
scalar RSUExampleScenario.node[119].nic.mac1609_4 collisions:count 0
attr source org_car2x_veins_modules_mac_sigCollision
scalar RSUExampleScenario.node[119].nic.mac1609_4 channelBusy:timeavg 0.11850499999999
attr source org_car2x_veins_modules_mac_sigChannelBusy
scalar RSUExampleScenario.node[119].veinsmobility startTime 115.2
scalar RSUExampleScenario.node[119].veinsmobility totalTime 4.8
scalar RSUExampleScenario.node[119].veinsmobility stopTime 120
scalar RSUExampleScenario.node[119].veinsmobility minSpeed 2.4388157652463
scalar RSUExampleScenario.node[119].veinsmobility maxSpeed 5.6157588472231
scalar RSUExampleScenario.node[119].veinsmobility totalDistance 21.444296241483
scalar RSUExampleScenario.node[119].veinsmobility totalCO2Emission 9.5222140607547
scalar RSUExampleScenario.node[120].appl generatedWSMs 0
scalar RSUExampleScenario.node[120].appl receivedWSMs 0
scalar RSUExampleScenario.node[120].appl generatedBSMs 35
scalar RSUExampleScenario.node[120].appl receivedBSMs 2464
scalar RSUExampleScenario.node[120].appl generatedWSAs 0
scalar RSUExampleScenario.node[120].appl receivedWSAs 0
scalar RSUExampleScenario.node[120].nic.phy80211p busyTime 0.11903542857142
scalar RSUExampleScenario.node[120].nic.mac1609_4 ReceivedUnicastPackets 0
scalar RSUExampleScenario.node[120].nic.mac1609_4 ReceivedBroadcasts 2464
scalar RSUExampleScenario.node[120].nic.mac1609_4 SentPackets 35
scalar RSUExampleScenario.node[120].nic.mac1609_4 SentAcknowledgements 0
scalar RSUExampleScenario.node[120].nic.mac1609_4 RetriesExceeded 0
scalar RSUExampleScenario.node[120].nic.mac1609_4 SNIRLostPackets 1542
scalar RSUExampleScenario.node[120].nic.mac1609_4 RXTXLostPackets 0
scalar RSUExampleScenario.node[120].nic.mac1609_4 TotalLostPackets 1542
scalar RSUExampleScenario.node[120].nic.mac1609_4 DroppedPacketsInMac 0
scalar RSUExampleScenario.node[120].nic.mac1609_4 TooLittleTime 0
scalar RSUExampleScenario.node[120].nic.mac1609_4 TimesIntoBackoff 35
scalar RSUExampleScenario.node[120].nic.mac1609_4 SlotsBackoff 52
scalar RSUExampleScenario.node[120].nic.mac1609_4 NumInternalContention 0
scalar RSUExampleScenario.node[120].nic.mac1609_4 totalBusyTime 0.415099
scalar RSUExampleScenario.node[120].nic.mac1609_4 retriesExceeded:count 0
attr source org_car2x_veins_modules_mac_sigRetriesExceeded
scalar RSUExampleScenario.node[120].nic.mac1609_4 sentAcks:count 0
attr source org_car2x_veins_modules_mac_sigSentAck
scalar RSUExampleScenario.node[120].nic.mac1609_4 sentPackets:count 35
attr source org_car2x_veins_modules_mac_sigSentPacket
scalar RSUExampleScenario.node[120].nic.mac1609_4 collisions:count 0
attr source org_car2x_veins_modules_mac_sigCollision
scalar RSUExampleScenario.node[120].nic.mac1609_4 channelBusy:timeavg 0.11859971428571
attr source org_car2x_veins_modules_mac_sigChannelBusy
scalar RSUExampleScenario.node[120].veinsmobility startTime 116.5
scalar RSUExampleScenario.node[120].veinsmobility totalTime 3.5
scalar RSUExampleScenario.node[120].veinsmobility stopTime 120
scalar RSUExampleScenario.node[120].veinsmobility minSpeed 2.5387798488302
scalar RSUExampleScenario.node[120].veinsmobility maxSpeed 5.4974417540127
scalar RSUExampleScenario.node[120].veinsmobility totalDistance 15.326240834207
scalar RSUExampleScenario.node[120].veinsmobility totalCO2Emission 7.4277790378749
scalar RSUExampleScenario.node[121].appl generatedWSMs 0
scalar RSUExampleScenario.node[121].appl receivedWSMs 0
scalar RSUExampleScenario.node[121].appl generatedBSMs 27
scalar RSUExampleScenario.node[121].appl receivedBSMs 1937
scalar RSUExampleScenario.node[121].appl generatedWSAs 0
scalar RSUExampleScenario.node[121].appl receivedWSAs 0
scalar RSUExampleScenario.node[121].nic.phy80211p busyTime 0.11917629629629
scalar RSUExampleScenario.node[121].nic.mac1609_4 ReceivedUnicastPackets 0
scalar RSUExampleScenario.node[121].nic.mac1609_4 ReceivedBroadcasts 1937
scalar RSUExampleScenario.node[121].nic.mac1609_4 SentPackets 27
scalar RSUExampleScenario.node[121].nic.mac1609_4 SentAcknowledgements 0
scalar RSUExampleScenario.node[121].nic.mac1609_4 RetriesExceeded 0
scalar RSUExampleScenario.node[121].nic.mac1609_4 SNIRLostPackets 1157
scalar RSUExampleScenario.node[121].nic.mac1609_4 RXTXLostPackets 0
scalar RSUExampleScenario.node[121].nic.mac1609_4 TotalLostPackets 1157
scalar RSUExampleScenario.node[121].nic.mac1609_4 DroppedPacketsInMac 0
scalar RSUExampleScenario.node[121].nic.mac1609_4 TooLittleTime 0
scalar RSUExampleScenario.node[121].nic.mac1609_4 TimesIntoBackoff 54
scalar RSUExampleScenario.node[121].nic.mac1609_4 SlotsBackoff 85
scalar RSUExampleScenario.node[121].nic.mac1609_4 NumInternalContention 0
scalar RSUExampleScenario.node[121].nic.mac1609_4 totalBusyTime 0.320971
scalar RSUExampleScenario.node[121].nic.mac1609_4 retriesExceeded:count 0
attr source org_car2x_veins_modules_mac_sigRetriesExceeded
scalar RSUExampleScenario.node[121].nic.mac1609_4 sentAcks:count 0
attr source org_car2x_veins_modules_mac_sigSentAck
scalar RSUExampleScenario.node[121].nic.mac1609_4 sentPackets:count 27
attr source org_car2x_veins_modules_mac_sigSentPacket
scalar RSUExampleScenario.node[121].nic.mac1609_4 collisions:count 0
attr source org_car2x_veins_modules_mac_sigCollision
scalar RSUExampleScenario.node[121].nic.mac1609_4 channelBusy:timeavg 0.11887814814814
attr source org_car2x_veins_modules_mac_sigChannelBusy
scalar RSUExampleScenario.node[121].veinsmobility startTime 117.3
scalar RSUExampleScenario.node[121].veinsmobility totalTime 2.7
scalar RSUExampleScenario.node[121].veinsmobility stopTime 120
scalar RSUExampleScenario.node[121].veinsmobility minSpeed 2.3671045502078
scalar RSUExampleScenario.node[121].veinsmobility maxSpeed 4.8252076724326
scalar RSUExampleScenario.node[121].veinsmobility totalDistance 10.24396653233
scalar RSUExampleScenario.node[121].veinsmobility totalCO2Emission 5.5159131461579
scalar RSUExampleScenario.node[122].appl generatedWSMs 0
scalar RSUExampleScenario.node[122].appl receivedWSMs 0
scalar RSUExampleScenario.node[122].appl generatedBSMs 15
scalar RSUExampleScenario.node[122].appl receivedBSMs 1060
scalar RSUExampleScenario.node[122].appl generatedWSAs 0
scalar RSUExampleScenario.node[122].appl receivedWSAs 0
scalar RSUExampleScenario.node[122].nic.phy80211p busyTime 0.11946133333333
scalar RSUExampleScenario.node[122].nic.mac1609_4 ReceivedUnicastPackets 0
scalar RSUExampleScenario.node[122].nic.mac1609_4 ReceivedBroadcasts 1060
scalar RSUExampleScenario.node[122].nic.mac1609_4 SentPackets 15
scalar RSUExampleScenario.node[122].nic.mac1609_4 SentAcknowledgements 0
scalar RSUExampleScenario.node[122].nic.mac1609_4 RetriesExceeded 0
scalar RSUExampleScenario.node[122].nic.mac1609_4 SNIRLostPackets 663
scalar RSUExampleScenario.node[122].nic.mac1609_4 RXTXLostPackets 0
scalar RSUExampleScenario.node[122].nic.mac1609_4 TotalLostPackets 663
scalar RSUExampleScenario.node[122].nic.mac1609_4 DroppedPacketsInMac 0
scalar RSUExampleScenario.node[122].nic.mac1609_4 TooLittleTime 0
scalar RSUExampleScenario.node[122].nic.mac1609_4 TimesIntoBackoff 15
scalar RSUExampleScenario.node[122].nic.mac1609_4 SlotsBackoff 14
scalar RSUExampleScenario.node[122].nic.mac1609_4 NumInternalContention 0
scalar RSUExampleScenario.node[122].nic.mac1609_4 totalBusyTime 0.179103
scalar RSUExampleScenario.node[122].nic.mac1609_4 retriesExceeded:count 0
attr source org_car2x_veins_modules_mac_sigRetriesExceeded
scalar RSUExampleScenario.node[122].nic.mac1609_4 sentAcks:count 0
attr source org_car2x_veins_modules_mac_sigSentAck
scalar RSUExampleScenario.node[122].nic.mac1609_4 sentPackets:count 15
attr source org_car2x_veins_modules_mac_sigSentPacket
scalar RSUExampleScenario.node[122].nic.mac1609_4 collisions:count 0
attr source org_car2x_veins_modules_mac_sigCollision
scalar RSUExampleScenario.node[122].nic.mac1609_4 channelBusy:timeavg 0.119402
attr source org_car2x_veins_modules_mac_sigChannelBusy
scalar RSUExampleScenario.node[122].veinsmobility startTime 118.5
scalar RSUExampleScenario.node[122].veinsmobility totalTime 1.5
scalar RSUExampleScenario.node[122].veinsmobility stopTime 120
scalar RSUExampleScenario.node[122].veinsmobility minSpeed 2.6034902288384
scalar RSUExampleScenario.node[122].veinsmobility maxSpeed 4.2266302715185
scalar RSUExampleScenario.node[122].veinsmobility totalDistance 5.1870540679784
scalar RSUExampleScenario.node[122].veinsmobility totalCO2Emission 3.1621025007308
scalar RSUExampleScenario.node[123].appl generatedWSMs 0
scalar RSUExampleScenario.node[123].appl receivedWSMs 0
scalar RSUExampleScenario.node[123].appl generatedBSMs 5
scalar RSUExampleScenario.node[123].appl receivedBSMs 355
scalar RSUExampleScenario.node[123].appl generatedWSAs 0
scalar RSUExampleScenario.node[123].appl receivedWSAs 0
scalar RSUExampleScenario.node[123].nic.phy80211p busyTime 0.1196
scalar RSUExampleScenario.node[123].nic.mac1609_4 ReceivedUnicastPackets 0
scalar RSUExampleScenario.node[123].nic.mac1609_4 ReceivedBroadcasts 355
scalar RSUExampleScenario.node[123].nic.mac1609_4 SentPackets 5
scalar RSUExampleScenario.node[123].nic.mac1609_4 SentAcknowledgements 0
scalar RSUExampleScenario.node[123].nic.mac1609_4 RetriesExceeded 0
scalar RSUExampleScenario.node[123].nic.mac1609_4 SNIRLostPackets 220
scalar RSUExampleScenario.node[123].nic.mac1609_4 RXTXLostPackets 0
scalar RSUExampleScenario.node[123].nic.mac1609_4 TotalLostPackets 220
scalar RSUExampleScenario.node[123].nic.mac1609_4 DroppedPacketsInMac 0
scalar RSUExampleScenario.node[123].nic.mac1609_4 TooLittleTime 0
scalar RSUExampleScenario.node[123].nic.mac1609_4 TimesIntoBackoff 5
scalar RSUExampleScenario.node[123].nic.mac1609_4 SlotsBackoff 9
scalar RSUExampleScenario.node[123].nic.mac1609_4 NumInternalContention 0
scalar RSUExampleScenario.node[123].nic.mac1609_4 totalBusyTime 0.059597
scalar RSUExampleScenario.node[123].nic.mac1609_4 retriesExceeded:count 0
attr source org_car2x_veins_modules_mac_sigRetriesExceeded
scalar RSUExampleScenario.node[123].nic.mac1609_4 sentAcks:count 0
attr source org_car2x_veins_modules_mac_sigSentAck
scalar RSUExampleScenario.node[123].nic.mac1609_4 sentPackets:count 5
attr source org_car2x_veins_modules_mac_sigSentPacket
scalar RSUExampleScenario.node[123].nic.mac1609_4 collisions:count 0
attr source org_car2x_veins_modules_mac_sigCollision
scalar RSUExampleScenario.node[123].nic.mac1609_4 channelBusy:timeavg 0.119194
attr source org_car2x_veins_modules_mac_sigChannelBusy
scalar RSUExampleScenario.node[123].veinsmobility startTime 119.5
scalar RSUExampleScenario.node[123].veinsmobility totalTime 0.5
scalar RSUExampleScenario.node[123].veinsmobility stopTime 120
scalar RSUExampleScenario.node[123].veinsmobility minSpeed 2.505189682506
scalar RSUExampleScenario.node[123].veinsmobility maxSpeed 3.1351493355527
scalar RSUExampleScenario.node[123].veinsmobility totalDistance 1.4285002195802
scalar RSUExampleScenario.node[123].veinsmobility totalCO2Emission 0.94304772948358

