version 2
run WithBeaconing-0-20251015-15:52:04-5067
attr configname WithBeaconing
attr datetime 20251015-15:52:04
attr experiment WithBeaconing
attr inifile omnetpp.ini
attr iterationvars ""
attr iterationvarsf ""
attr measurement ""
attr network RSUExampleScenario
attr processid 5067
attr repetition 0
attr replication #0
attr resultdir results
attr runnumber 0
attr seedset 210041226
param *.node[*].appl.sendBeacons true
param *.playgroundSizeX 1700m
param *.playgroundSizeY 1700m
param *.playgroundSizeZ 50m
param *.annotations.draw true
param *.manager.updateInterval 0.1s
param *.manager.host "\"localhost\""
param *.manager.port 9999
param *.manager.autoShutdown true
param *.manager.launchConfig "xmldoc(\"simulation_junction.launchd.xml\")"
param *.connectionManager.sendDirect true
param *.connectionManager.maxInterfDist 2600m
param *.connectionManager.drawMaxIntfDist false
param *.**.nic.mac1609_4.useServiceChannel false
param *.**.nic.mac1609_4.txPower 20mW
param *.**.nic.mac1609_4.bitrate 6Mbps
param *.**.nic.phy80211p.minPowerLevel -110dBm
param *.**.nic.phy80211p.useNoiseFloor true
param *.**.nic.phy80211p.noiseFloor -98dBm
param *.**.nic.phy80211p.decider "xmldoc(\"config.xml\")"
param *.**.nic.phy80211p.analogueModels "xmldoc(\"config.xml\")"
param *.**.nic.phy80211p.usePropagationDelay true
param *.**.nic.phy80211p.antenna "xmldoc(\"antenna.xml\", \"/root/Antenna[@id='monopole']\")"
param *.node[*].nic.phy80211p.antennaOffsetY "0 m"
param *.node[*].nic.phy80211p.antennaOffsetZ "1.895 m"
param *.node[*].applType "\"TraCIDemo11p\""
param *.node[*].appl.headerLength "80 bit"
param *.node[*].appl.sendBeacons false
param *.node[*].appl.dataOnSch false
param *.node[*].appl.beaconInterval 0.1s
param **.node[*].appl.dataUserPriority 5
param **.node[*].appl.beaconUserPriority 7
param *.node[*].veinsmobility.x 0
param *.node[*].veinsmobility.y 0
param *.node[*].veinsmobility.z 0
param *.node[*].veinsmobility.setHostSpeed false

scalar RSUExampleScenario.node[0].appl generatedWSMs 1
scalar RSUExampleScenario.node[0].appl receivedWSMs 75
scalar RSUExampleScenario.node[0].appl generatedBSMs 944
scalar RSUExampleScenario.node[0].appl receivedBSMs 40401
scalar RSUExampleScenario.node[0].appl generatedWSAs 0
scalar RSUExampleScenario.node[0].appl receivedWSAs 0
scalar RSUExampleScenario.node[0].nic.phy80211p busyTime 0.048381355932208
scalar RSUExampleScenario.node[0].nic.mac1609_4 ReceivedUnicastPackets 0
scalar RSUExampleScenario.node[0].nic.mac1609_4 ReceivedBroadcasts 40476
scalar RSUExampleScenario.node[0].nic.mac1609_4 SentPackets 945
scalar RSUExampleScenario.node[0].nic.mac1609_4 SentAcknowledgements 0
scalar RSUExampleScenario.node[0].nic.mac1609_4 RetriesExceeded 0
scalar RSUExampleScenario.node[0].nic.mac1609_4 SNIRLostPackets 3336
scalar RSUExampleScenario.node[0].nic.mac1609_4 RXTXLostPackets 0
scalar RSUExampleScenario.node[0].nic.mac1609_4 TotalLostPackets 3336
scalar RSUExampleScenario.node[0].nic.mac1609_4 DroppedPacketsInMac 0
scalar RSUExampleScenario.node[0].nic.mac1609_4 TooLittleTime 0
scalar RSUExampleScenario.node[0].nic.mac1609_4 TimesIntoBackoff 945
scalar RSUExampleScenario.node[0].nic.mac1609_4 SlotsBackoff 1424
scalar RSUExampleScenario.node[0].nic.mac1609_4 NumInternalContention 0
scalar RSUExampleScenario.node[0].nic.mac1609_4 totalBusyTime 4.639305
scalar RSUExampleScenario.node[0].nic.mac1609_4 retriesExceeded:count 0
attr source org_car2x_veins_modules_mac_sigRetriesExceeded
scalar RSUExampleScenario.node[0].nic.mac1609_4 sentAcks:count 0
attr source org_car2x_veins_modules_mac_sigSentAck
scalar RSUExampleScenario.node[0].nic.mac1609_4 sentPackets:count 945
attr source org_car2x_veins_modules_mac_sigSentPacket
scalar RSUExampleScenario.node[0].nic.mac1609_4 collisions:count 0
attr source org_car2x_veins_modules_mac_sigCollision
scalar RSUExampleScenario.node[0].nic.mac1609_4 channelBusy:timeavg 0.049145180084753
attr source org_car2x_veins_modules_mac_sigChannelBusy
scalar RSUExampleScenario.node[0].veinsmobility startTime 0.1
scalar RSUExampleScenario.node[0].veinsmobility totalTime 94.3
scalar RSUExampleScenario.node[0].veinsmobility stopTime 94.5
scalar RSUExampleScenario.node[0].veinsmobility minSpeed 0
scalar RSUExampleScenario.node[0].veinsmobility maxSpeed 11.162133028705
scalar RSUExampleScenario.node[0].veinsmobility totalDistance 747.04566883478
scalar RSUExampleScenario.node[0].veinsmobility totalCO2Emission 204.94676513794
scalar RSUExampleScenario.node[1].appl generatedWSMs 1
scalar RSUExampleScenario.node[1].appl receivedWSMs 76
scalar RSUExampleScenario.node[1].appl generatedBSMs 969
scalar RSUExampleScenario.node[1].appl receivedBSMs 42311
scalar RSUExampleScenario.node[1].appl generatedWSAs 0
scalar RSUExampleScenario.node[1].appl receivedWSAs 0
scalar RSUExampleScenario.node[1].nic.phy80211p busyTime 0.049474427244594
scalar RSUExampleScenario.node[1].nic.mac1609_4 ReceivedUnicastPackets 0
scalar RSUExampleScenario.node[1].nic.mac1609_4 ReceivedBroadcasts 42387
scalar RSUExampleScenario.node[1].nic.mac1609_4 SentPackets 970
scalar RSUExampleScenario.node[1].nic.mac1609_4 SentAcknowledgements 0
scalar RSUExampleScenario.node[1].nic.mac1609_4 RetriesExceeded 0
scalar RSUExampleScenario.node[1].nic.mac1609_4 SNIRLostPackets 3604
scalar RSUExampleScenario.node[1].nic.mac1609_4 RXTXLostPackets 0
scalar RSUExampleScenario.node[1].nic.mac1609_4 TotalLostPackets 3604
scalar RSUExampleScenario.node[1].nic.mac1609_4 DroppedPacketsInMac 0
scalar RSUExampleScenario.node[1].nic.mac1609_4 TooLittleTime 0
scalar RSUExampleScenario.node[1].nic.mac1609_4 TimesIntoBackoff 971
scalar RSUExampleScenario.node[1].nic.mac1609_4 SlotsBackoff 1475
scalar RSUExampleScenario.node[1].nic.mac1609_4 NumInternalContention 0
scalar RSUExampleScenario.node[1].nic.mac1609_4 totalBusyTime 4.865578
scalar RSUExampleScenario.node[1].nic.mac1609_4 retriesExceeded:count 0
attr source org_car2x_veins_modules_mac_sigRetriesExceeded
scalar RSUExampleScenario.node[1].nic.mac1609_4 sentAcks:count 0
attr source org_car2x_veins_modules_mac_sigSentAck
scalar RSUExampleScenario.node[1].nic.mac1609_4 sentPackets:count 970
attr source org_car2x_veins_modules_mac_sigSentPacket
scalar RSUExampleScenario.node[1].nic.mac1609_4 collisions:count 0
attr source org_car2x_veins_modules_mac_sigCollision
scalar RSUExampleScenario.node[1].nic.mac1609_4 channelBusy:timeavg 0.050212363261108
attr source org_car2x_veins_modules_mac_sigChannelBusy
scalar RSUExampleScenario.node[1].veinsmobility startTime 0.1
scalar RSUExampleScenario.node[1].veinsmobility totalTime 96.8
scalar RSUExampleScenario.node[1].veinsmobility stopTime 97
scalar RSUExampleScenario.node[1].veinsmobility minSpeed 0
scalar RSUExampleScenario.node[1].veinsmobility maxSpeed 10.483756262194
scalar RSUExampleScenario.node[1].veinsmobility totalDistance 748.52851362457
scalar RSUExampleScenario.node[1].veinsmobility totalCO2Emission 203.46915658065
scalar RSUExampleScenario.node[8].appl generatedWSMs 1
scalar RSUExampleScenario.node[8].appl receivedWSMs 77
scalar RSUExampleScenario.node[8].appl generatedBSMs 926
scalar RSUExampleScenario.node[8].appl receivedBSMs 43445
scalar RSUExampleScenario.node[8].appl generatedWSAs 0
scalar RSUExampleScenario.node[8].appl receivedWSAs 0
scalar RSUExampleScenario.node[8].nic.phy80211p busyTime 0.053093131749477
scalar RSUExampleScenario.node[8].nic.mac1609_4 ReceivedUnicastPackets 0
scalar RSUExampleScenario.node[8].nic.mac1609_4 ReceivedBroadcasts 43522
scalar RSUExampleScenario.node[8].nic.mac1609_4 SentPackets 927
scalar RSUExampleScenario.node[8].nic.mac1609_4 SentAcknowledgements 0
scalar RSUExampleScenario.node[8].nic.mac1609_4 RetriesExceeded 0
scalar RSUExampleScenario.node[8].nic.mac1609_4 SNIRLostPackets 3643
scalar RSUExampleScenario.node[8].nic.mac1609_4 RXTXLostPackets 70
scalar RSUExampleScenario.node[8].nic.mac1609_4 TotalLostPackets 3713
scalar RSUExampleScenario.node[8].nic.mac1609_4 DroppedPacketsInMac 0
scalar RSUExampleScenario.node[8].nic.mac1609_4 TooLittleTime 0
scalar RSUExampleScenario.node[8].nic.mac1609_4 TimesIntoBackoff 928
scalar RSUExampleScenario.node[8].nic.mac1609_4 SlotsBackoff 1429
scalar RSUExampleScenario.node[8].nic.mac1609_4 NumInternalContention 0
scalar RSUExampleScenario.node[8].nic.mac1609_4 totalBusyTime 4.987783
scalar RSUExampleScenario.node[8].nic.mac1609_4 retriesExceeded:count 0
attr source org_car2x_veins_modules_mac_sigRetriesExceeded
scalar RSUExampleScenario.node[8].nic.mac1609_4 sentAcks:count 0
attr source org_car2x_veins_modules_mac_sigSentAck
scalar RSUExampleScenario.node[8].nic.mac1609_4 sentPackets:count 927
attr source org_car2x_veins_modules_mac_sigSentPacket
scalar RSUExampleScenario.node[8].nic.mac1609_4 collisions:count 0
attr source org_car2x_veins_modules_mac_sigCollision
scalar RSUExampleScenario.node[8].nic.mac1609_4 channelBusy:timeavg 0.053863747300234
attr source org_car2x_veins_modules_mac_sigChannelBusy
scalar RSUExampleScenario.node[8].veinsmobility startTime 6.1
scalar RSUExampleScenario.node[8].veinsmobility totalTime 92.5
scalar RSUExampleScenario.node[8].veinsmobility stopTime 98.7
scalar RSUExampleScenario.node[8].veinsmobility minSpeed 0.00043566645583046
scalar RSUExampleScenario.node[8].veinsmobility maxSpeed 11.208720670199
scalar RSUExampleScenario.node[8].veinsmobility totalDistance 748.93915973985
scalar RSUExampleScenario.node[8].veinsmobility totalCO2Emission 219.47124092326
scalar RSUExampleScenario.node[2].appl generatedWSMs 1
scalar RSUExampleScenario.node[2].appl receivedWSMs 78
scalar RSUExampleScenario.node[2].appl generatedBSMs 992
scalar RSUExampleScenario.node[2].appl receivedBSMs 44773
scalar RSUExampleScenario.node[2].appl generatedWSAs 0
scalar RSUExampleScenario.node[2].appl receivedWSAs 0
scalar RSUExampleScenario.node[2].nic.phy80211p busyTime 0.051377016129053
scalar RSUExampleScenario.node[2].nic.mac1609_4 ReceivedUnicastPackets 0
scalar RSUExampleScenario.node[2].nic.mac1609_4 ReceivedBroadcasts 44851
scalar RSUExampleScenario.node[2].nic.mac1609_4 SentPackets 993
scalar RSUExampleScenario.node[2].nic.mac1609_4 SentAcknowledgements 0
scalar RSUExampleScenario.node[2].nic.mac1609_4 RetriesExceeded 0
scalar RSUExampleScenario.node[2].nic.mac1609_4 SNIRLostPackets 4044
scalar RSUExampleScenario.node[2].nic.mac1609_4 RXTXLostPackets 0
scalar RSUExampleScenario.node[2].nic.mac1609_4 TotalLostPackets 4044
scalar RSUExampleScenario.node[2].nic.mac1609_4 DroppedPacketsInMac 0
scalar RSUExampleScenario.node[2].nic.mac1609_4 TooLittleTime 0
scalar RSUExampleScenario.node[2].nic.mac1609_4 TimesIntoBackoff 993
scalar RSUExampleScenario.node[2].nic.mac1609_4 SlotsBackoff 1499
scalar RSUExampleScenario.node[2].nic.mac1609_4 NumInternalContention 0
scalar RSUExampleScenario.node[2].nic.mac1609_4 totalBusyTime 5.165113
scalar RSUExampleScenario.node[2].nic.mac1609_4 retriesExceeded:count 0
attr source org_car2x_veins_modules_mac_sigRetriesExceeded
scalar RSUExampleScenario.node[2].nic.mac1609_4 sentAcks:count 0
attr source org_car2x_veins_modules_mac_sigSentAck
scalar RSUExampleScenario.node[2].nic.mac1609_4 sentPackets:count 993
attr source org_car2x_veins_modules_mac_sigSentPacket
scalar RSUExampleScenario.node[2].nic.mac1609_4 collisions:count 0
attr source org_car2x_veins_modules_mac_sigCollision
scalar RSUExampleScenario.node[2].nic.mac1609_4 channelBusy:timeavg 0.05206767137099
attr source org_car2x_veins_modules_mac_sigChannelBusy
scalar RSUExampleScenario.node[2].veinsmobility startTime 1.1
scalar RSUExampleScenario.node[2].veinsmobility totalTime 99.1
scalar RSUExampleScenario.node[2].veinsmobility stopTime 100.3
scalar RSUExampleScenario.node[2].veinsmobility minSpeed 0
scalar RSUExampleScenario.node[2].veinsmobility maxSpeed 10.299519296295
scalar RSUExampleScenario.node[2].veinsmobility totalDistance 747.04089726056
scalar RSUExampleScenario.node[2].veinsmobility totalCO2Emission 212.2945403678
scalar RSUExampleScenario.node[13].appl generatedWSMs 1
scalar RSUExampleScenario.node[13].appl receivedWSMs 80
scalar RSUExampleScenario.node[13].appl generatedBSMs 905
scalar RSUExampleScenario.node[13].appl receivedBSMs 44530
scalar RSUExampleScenario.node[13].appl generatedWSAs 0
scalar RSUExampleScenario.node[13].appl receivedWSAs 0
scalar RSUExampleScenario.node[13].nic.phy80211p busyTime 0.055881635359138
scalar RSUExampleScenario.node[13].nic.mac1609_4 ReceivedUnicastPackets 0
scalar RSUExampleScenario.node[13].nic.mac1609_4 ReceivedBroadcasts 44610
scalar RSUExampleScenario.node[13].nic.mac1609_4 SentPackets 906
scalar RSUExampleScenario.node[13].nic.mac1609_4 SentAcknowledgements 0
scalar RSUExampleScenario.node[13].nic.mac1609_4 RetriesExceeded 0
scalar RSUExampleScenario.node[13].nic.mac1609_4 SNIRLostPackets 3907
scalar RSUExampleScenario.node[13].nic.mac1609_4 RXTXLostPackets 0
scalar RSUExampleScenario.node[13].nic.mac1609_4 TotalLostPackets 3907
scalar RSUExampleScenario.node[13].nic.mac1609_4 DroppedPacketsInMac 0
scalar RSUExampleScenario.node[13].nic.mac1609_4 TooLittleTime 0
scalar RSUExampleScenario.node[13].nic.mac1609_4 TimesIntoBackoff 1502
scalar RSUExampleScenario.node[13].nic.mac1609_4 SlotsBackoff 2258
scalar RSUExampleScenario.node[13].nic.mac1609_4 NumInternalContention 0
scalar RSUExampleScenario.node[13].nic.mac1609_4 totalBusyTime 5.116146
scalar RSUExampleScenario.node[13].nic.mac1609_4 retriesExceeded:count 0
attr source org_car2x_veins_modules_mac_sigRetriesExceeded
scalar RSUExampleScenario.node[13].nic.mac1609_4 sentAcks:count 0
attr source org_car2x_veins_modules_mac_sigSentAck
scalar RSUExampleScenario.node[13].nic.mac1609_4 sentPackets:count 906
attr source org_car2x_veins_modules_mac_sigSentPacket
scalar RSUExampleScenario.node[13].nic.mac1609_4 collisions:count 0
attr source org_car2x_veins_modules_mac_sigCollision
scalar RSUExampleScenario.node[13].nic.mac1609_4 channelBusy:timeavg 0.056532000000023
attr source org_car2x_veins_modules_mac_sigChannelBusy
scalar RSUExampleScenario.node[13].veinsmobility startTime 10.1
scalar RSUExampleScenario.node[13].veinsmobility totalTime 90.4
scalar RSUExampleScenario.node[13].veinsmobility stopTime 100.6
scalar RSUExampleScenario.node[13].veinsmobility minSpeed 0.0093306455439268
scalar RSUExampleScenario.node[13].veinsmobility maxSpeed 10.567533434408
scalar RSUExampleScenario.node[13].veinsmobility totalDistance 749.36463312221
scalar RSUExampleScenario.node[13].veinsmobility totalCO2Emission 216.70011766495
scalar RSUExampleScenario.node[3].appl generatedWSMs 1
scalar RSUExampleScenario.node[3].appl receivedWSMs 81
scalar RSUExampleScenario.node[3].appl generatedBSMs 1006
scalar RSUExampleScenario.node[3].appl receivedBSMs 46691
scalar RSUExampleScenario.node[3].appl generatedWSAs 0
scalar RSUExampleScenario.node[3].appl receivedWSAs 0
scalar RSUExampleScenario.node[3].nic.phy80211p busyTime 0.05284174950301
scalar RSUExampleScenario.node[3].nic.mac1609_4 ReceivedUnicastPackets 0
scalar RSUExampleScenario.node[3].nic.mac1609_4 ReceivedBroadcasts 46772
scalar RSUExampleScenario.node[3].nic.mac1609_4 SentPackets 1007
scalar RSUExampleScenario.node[3].nic.mac1609_4 SentAcknowledgements 0
scalar RSUExampleScenario.node[3].nic.mac1609_4 RetriesExceeded 0
scalar RSUExampleScenario.node[3].nic.mac1609_4 SNIRLostPackets 4229
scalar RSUExampleScenario.node[3].nic.mac1609_4 RXTXLostPackets 0
scalar RSUExampleScenario.node[3].nic.mac1609_4 TotalLostPackets 4229
scalar RSUExampleScenario.node[3].nic.mac1609_4 DroppedPacketsInMac 0
scalar RSUExampleScenario.node[3].nic.mac1609_4 TooLittleTime 0
scalar RSUExampleScenario.node[3].nic.mac1609_4 TimesIntoBackoff 1007
scalar RSUExampleScenario.node[3].nic.mac1609_4 SlotsBackoff 1553
scalar RSUExampleScenario.node[3].nic.mac1609_4 NumInternalContention 0
scalar RSUExampleScenario.node[3].nic.mac1609_4 totalBusyTime 5.381599
scalar RSUExampleScenario.node[3].nic.mac1609_4 retriesExceeded:count 0
attr source org_car2x_veins_modules_mac_sigRetriesExceeded
scalar RSUExampleScenario.node[3].nic.mac1609_4 sentAcks:count 0
attr source org_car2x_veins_modules_mac_sigSentAck
scalar RSUExampleScenario.node[3].nic.mac1609_4 sentPackets:count 1007
attr source org_car2x_veins_modules_mac_sigSentPacket
scalar RSUExampleScenario.node[3].nic.mac1609_4 collisions:count 0
attr source org_car2x_veins_modules_mac_sigCollision
scalar RSUExampleScenario.node[3].nic.mac1609_4 channelBusy:timeavg 0.053495019880745
attr source org_car2x_veins_modules_mac_sigChannelBusy
scalar RSUExampleScenario.node[3].veinsmobility startTime 2.1
scalar RSUExampleScenario.node[3].veinsmobility totalTime 100.5
scalar RSUExampleScenario.node[3].veinsmobility stopTime 102.7
scalar RSUExampleScenario.node[3].veinsmobility minSpeed 0
scalar RSUExampleScenario.node[3].veinsmobility maxSpeed 10.152789190569
scalar RSUExampleScenario.node[3].veinsmobility totalDistance 746.93101809484
scalar RSUExampleScenario.node[3].veinsmobility totalCO2Emission 214.36816292647
scalar RSUExampleScenario.node[5].appl generatedWSMs 1
scalar RSUExampleScenario.node[5].appl receivedWSMs 83
scalar RSUExampleScenario.node[5].appl generatedBSMs 1011
scalar RSUExampleScenario.node[5].appl receivedBSMs 48021
scalar RSUExampleScenario.node[5].appl generatedWSAs 0
scalar RSUExampleScenario.node[5].appl receivedWSAs 0
scalar RSUExampleScenario.node[5].nic.phy80211p busyTime 0.054006646884305
scalar RSUExampleScenario.node[5].nic.mac1609_4 ReceivedUnicastPackets 0
scalar RSUExampleScenario.node[5].nic.mac1609_4 ReceivedBroadcasts 48104
scalar RSUExampleScenario.node[5].nic.mac1609_4 SentPackets 1012
scalar RSUExampleScenario.node[5].nic.mac1609_4 SentAcknowledgements 0
scalar RSUExampleScenario.node[5].nic.mac1609_4 RetriesExceeded 0
scalar RSUExampleScenario.node[5].nic.mac1609_4 SNIRLostPackets 4281
scalar RSUExampleScenario.node[5].nic.mac1609_4 RXTXLostPackets 0
scalar RSUExampleScenario.node[5].nic.mac1609_4 TotalLostPackets 4281
scalar RSUExampleScenario.node[5].nic.mac1609_4 DroppedPacketsInMac 0
scalar RSUExampleScenario.node[5].nic.mac1609_4 TooLittleTime 0
scalar RSUExampleScenario.node[5].nic.mac1609_4 TimesIntoBackoff 1012
scalar RSUExampleScenario.node[5].nic.mac1609_4 SlotsBackoff 1522
scalar RSUExampleScenario.node[5].nic.mac1609_4 NumInternalContention 0
scalar RSUExampleScenario.node[5].nic.mac1609_4 totalBusyTime 5.52382
scalar RSUExampleScenario.node[5].nic.mac1609_4 retriesExceeded:count 0
attr source org_car2x_veins_modules_mac_sigRetriesExceeded
scalar RSUExampleScenario.node[5].nic.mac1609_4 sentAcks:count 0
attr source org_car2x_veins_modules_mac_sigSentAck
scalar RSUExampleScenario.node[5].nic.mac1609_4 sentPackets:count 1012
attr source org_car2x_veins_modules_mac_sigSentPacket
scalar RSUExampleScenario.node[5].nic.mac1609_4 collisions:count 0
attr source org_car2x_veins_modules_mac_sigCollision
scalar RSUExampleScenario.node[5].nic.mac1609_4 channelBusy:timeavg 0.054637190900132
attr source org_car2x_veins_modules_mac_sigChannelBusy
scalar RSUExampleScenario.node[5].veinsmobility startTime 3.2
scalar RSUExampleScenario.node[5].veinsmobility totalTime 101
scalar RSUExampleScenario.node[5].veinsmobility stopTime 104.3
scalar RSUExampleScenario.node[5].veinsmobility minSpeed 0
scalar RSUExampleScenario.node[5].veinsmobility maxSpeed 11.547370370109
scalar RSUExampleScenario.node[5].veinsmobility totalDistance 746.54788699295
scalar RSUExampleScenario.node[5].veinsmobility totalCO2Emission 230.95078596949
scalar RSUExampleScenario.node[16].appl generatedWSMs 1
scalar RSUExampleScenario.node[16].appl receivedWSMs 83
scalar RSUExampleScenario.node[16].appl generatedBSMs 906
scalar RSUExampleScenario.node[16].appl receivedBSMs 47130
scalar RSUExampleScenario.node[16].appl generatedWSAs 0
scalar RSUExampleScenario.node[16].appl receivedWSAs 0
scalar RSUExampleScenario.node[16].nic.phy80211p busyTime 0.059364591611512
scalar RSUExampleScenario.node[16].nic.mac1609_4 ReceivedUnicastPackets 0
scalar RSUExampleScenario.node[16].nic.mac1609_4 ReceivedBroadcasts 47213
scalar RSUExampleScenario.node[16].nic.mac1609_4 SentPackets 907
scalar RSUExampleScenario.node[16].nic.mac1609_4 SentAcknowledgements 0
scalar RSUExampleScenario.node[16].nic.mac1609_4 RetriesExceeded 0
scalar RSUExampleScenario.node[16].nic.mac1609_4 SNIRLostPackets 4387
scalar RSUExampleScenario.node[16].nic.mac1609_4 RXTXLostPackets 0
scalar RSUExampleScenario.node[16].nic.mac1609_4 TotalLostPackets 4387
scalar RSUExampleScenario.node[16].nic.mac1609_4 DroppedPacketsInMac 0
scalar RSUExampleScenario.node[16].nic.mac1609_4 TooLittleTime 0
scalar RSUExampleScenario.node[16].nic.mac1609_4 TimesIntoBackoff 1133
scalar RSUExampleScenario.node[16].nic.mac1609_4 SlotsBackoff 1664
scalar RSUExampleScenario.node[16].nic.mac1609_4 NumInternalContention 0
scalar RSUExampleScenario.node[16].nic.mac1609_4 totalBusyTime 5.430323
scalar RSUExampleScenario.node[16].nic.mac1609_4 retriesExceeded:count 0
attr source org_car2x_veins_modules_mac_sigRetriesExceeded
scalar RSUExampleScenario.node[16].nic.mac1609_4 sentAcks:count 0
attr source org_car2x_veins_modules_mac_sigSentAck
scalar RSUExampleScenario.node[16].nic.mac1609_4 sentPackets:count 907
attr source org_car2x_veins_modules_mac_sigSentPacket
scalar RSUExampleScenario.node[16].nic.mac1609_4 collisions:count 0
attr source org_car2x_veins_modules_mac_sigCollision
scalar RSUExampleScenario.node[16].nic.mac1609_4 channelBusy:timeavg 0.059937339955884
attr source org_car2x_veins_modules_mac_sigChannelBusy
scalar RSUExampleScenario.node[16].veinsmobility startTime 14.1
scalar RSUExampleScenario.node[16].veinsmobility totalTime 90.5
scalar RSUExampleScenario.node[16].veinsmobility stopTime 104.7
scalar RSUExampleScenario.node[16].veinsmobility minSpeed 0.10501044417706
scalar RSUExampleScenario.node[16].veinsmobility maxSpeed 10.053432858291
scalar RSUExampleScenario.node[16].veinsmobility totalDistance 749.41383881253
scalar RSUExampleScenario.node[16].veinsmobility totalCO2Emission 209.13084484651
scalar RSUExampleScenario.node[20].appl generatedWSMs 1
scalar RSUExampleScenario.node[20].appl receivedWSMs 84
scalar RSUExampleScenario.node[20].appl generatedBSMs 883
scalar RSUExampleScenario.node[20].appl receivedBSMs 47795
scalar RSUExampleScenario.node[20].appl generatedWSAs 0
scalar RSUExampleScenario.node[20].appl receivedWSAs 0
scalar RSUExampleScenario.node[20].nic.phy80211p busyTime 0.061854858437183
scalar RSUExampleScenario.node[20].nic.mac1609_4 ReceivedUnicastPackets 0
scalar RSUExampleScenario.node[20].nic.mac1609_4 ReceivedBroadcasts 47879
scalar RSUExampleScenario.node[20].nic.mac1609_4 SentPackets 884
scalar RSUExampleScenario.node[20].nic.mac1609_4 SentAcknowledgements 0
scalar RSUExampleScenario.node[20].nic.mac1609_4 RetriesExceeded 0
scalar RSUExampleScenario.node[20].nic.mac1609_4 SNIRLostPackets 4520
scalar RSUExampleScenario.node[20].nic.mac1609_4 RXTXLostPackets 0
scalar RSUExampleScenario.node[20].nic.mac1609_4 TotalLostPackets 4520
scalar RSUExampleScenario.node[20].nic.mac1609_4 DroppedPacketsInMac 0
scalar RSUExampleScenario.node[20].nic.mac1609_4 TooLittleTime 0
scalar RSUExampleScenario.node[20].nic.mac1609_4 TimesIntoBackoff 927
scalar RSUExampleScenario.node[20].nic.mac1609_4 SlotsBackoff 1489
scalar RSUExampleScenario.node[20].nic.mac1609_4 NumInternalContention 0
scalar RSUExampleScenario.node[20].nic.mac1609_4 totalBusyTime 5.508036
scalar RSUExampleScenario.node[20].nic.mac1609_4 retriesExceeded:count 0
attr source org_car2x_veins_modules_mac_sigRetriesExceeded
scalar RSUExampleScenario.node[20].nic.mac1609_4 sentAcks:count 0
attr source org_car2x_veins_modules_mac_sigSentAck
scalar RSUExampleScenario.node[20].nic.mac1609_4 sentPackets:count 884
attr source org_car2x_veins_modules_mac_sigSentPacket
scalar RSUExampleScenario.node[20].nic.mac1609_4 collisions:count 0
attr source org_car2x_veins_modules_mac_sigCollision
scalar RSUExampleScenario.node[20].nic.mac1609_4 channelBusy:timeavg 0.062378663646696
attr source org_car2x_veins_modules_mac_sigChannelBusy
scalar RSUExampleScenario.node[20].veinsmobility startTime 18.1
scalar RSUExampleScenario.node[20].veinsmobility totalTime 88.2
scalar RSUExampleScenario.node[20].veinsmobility stopTime 106.4
scalar RSUExampleScenario.node[20].veinsmobility minSpeed 0.57166590962338
scalar RSUExampleScenario.node[20].veinsmobility maxSpeed 10.34494737406
scalar RSUExampleScenario.node[20].veinsmobility totalDistance 748.85310245906
scalar RSUExampleScenario.node[20].veinsmobility totalCO2Emission 210.74451698481
scalar RSUExampleScenario.node[24].appl generatedWSMs 1
scalar RSUExampleScenario.node[24].appl receivedWSMs 85
scalar RSUExampleScenario.node[24].appl generatedBSMs 861
scalar RSUExampleScenario.node[24].appl receivedBSMs 48387
scalar RSUExampleScenario.node[24].appl generatedWSAs 0
scalar RSUExampleScenario.node[24].appl receivedWSAs 0
scalar RSUExampleScenario.node[24].nic.phy80211p busyTime 0.064323159117346
scalar RSUExampleScenario.node[24].nic.mac1609_4 ReceivedUnicastPackets 0
scalar RSUExampleScenario.node[24].nic.mac1609_4 ReceivedBroadcasts 48472
scalar RSUExampleScenario.node[24].nic.mac1609_4 SentPackets 862
scalar RSUExampleScenario.node[24].nic.mac1609_4 SentAcknowledgements 0
scalar RSUExampleScenario.node[24].nic.mac1609_4 RetriesExceeded 0
scalar RSUExampleScenario.node[24].nic.mac1609_4 SNIRLostPackets 4662
scalar RSUExampleScenario.node[24].nic.mac1609_4 RXTXLostPackets 0
scalar RSUExampleScenario.node[24].nic.mac1609_4 TotalLostPackets 4662
scalar RSUExampleScenario.node[24].nic.mac1609_4 DroppedPacketsInMac 0
scalar RSUExampleScenario.node[24].nic.mac1609_4 TooLittleTime 0
scalar RSUExampleScenario.node[24].nic.mac1609_4 TimesIntoBackoff 862
scalar RSUExampleScenario.node[24].nic.mac1609_4 SlotsBackoff 1303
scalar RSUExampleScenario.node[24].nic.mac1609_4 NumInternalContention 0
scalar RSUExampleScenario.node[24].nic.mac1609_4 totalBusyTime 5.578734
scalar RSUExampleScenario.node[24].nic.mac1609_4 retriesExceeded:count 0
attr source org_car2x_veins_modules_mac_sigRetriesExceeded
scalar RSUExampleScenario.node[24].nic.mac1609_4 sentAcks:count 0
attr source org_car2x_veins_modules_mac_sigSentAck
scalar RSUExampleScenario.node[24].nic.mac1609_4 sentPackets:count 862
attr source org_car2x_veins_modules_mac_sigSentPacket
scalar RSUExampleScenario.node[24].nic.mac1609_4 collisions:count 0
attr source org_car2x_veins_modules_mac_sigCollision
scalar RSUExampleScenario.node[24].nic.mac1609_4 channelBusy:timeavg 0.064793658536626
attr source org_car2x_veins_modules_mac_sigChannelBusy
scalar RSUExampleScenario.node[24].veinsmobility startTime 22.1
scalar RSUExampleScenario.node[24].veinsmobility totalTime 86
scalar RSUExampleScenario.node[24].veinsmobility stopTime 108.2
scalar RSUExampleScenario.node[24].veinsmobility minSpeed 1.7259890831616
scalar RSUExampleScenario.node[24].veinsmobility maxSpeed 10.29640165033
scalar RSUExampleScenario.node[24].veinsmobility totalDistance 749.08117856594
scalar RSUExampleScenario.node[24].veinsmobility totalCO2Emission 206.44685608033
scalar RSUExampleScenario.node[7].appl generatedWSMs 1
scalar RSUExampleScenario.node[7].appl receivedWSMs 87
scalar RSUExampleScenario.node[7].appl generatedBSMs 1059
scalar RSUExampleScenario.node[7].appl receivedBSMs 52836
scalar RSUExampleScenario.node[7].appl generatedWSAs 0
scalar RSUExampleScenario.node[7].appl receivedWSAs 0
scalar RSUExampleScenario.node[7].nic.phy80211p busyTime 0.056954560906563
scalar RSUExampleScenario.node[7].nic.mac1609_4 ReceivedUnicastPackets 0
scalar RSUExampleScenario.node[7].nic.mac1609_4 ReceivedBroadcasts 52923
scalar RSUExampleScenario.node[7].nic.mac1609_4 SentPackets 1060
scalar RSUExampleScenario.node[7].nic.mac1609_4 SentAcknowledgements 0
scalar RSUExampleScenario.node[7].nic.mac1609_4 RetriesExceeded 0
scalar RSUExampleScenario.node[7].nic.mac1609_4 SNIRLostPackets 4949
scalar RSUExampleScenario.node[7].nic.mac1609_4 RXTXLostPackets 0
scalar RSUExampleScenario.node[7].nic.mac1609_4 TotalLostPackets 4949
scalar RSUExampleScenario.node[7].nic.mac1609_4 DroppedPacketsInMac 0
scalar RSUExampleScenario.node[7].nic.mac1609_4 TooLittleTime 0
scalar RSUExampleScenario.node[7].nic.mac1609_4 TimesIntoBackoff 1060
scalar RSUExampleScenario.node[7].nic.mac1609_4 SlotsBackoff 1587
scalar RSUExampleScenario.node[7].nic.mac1609_4 NumInternalContention 0
scalar RSUExampleScenario.node[7].nic.mac1609_4 totalBusyTime 6.088628
scalar RSUExampleScenario.node[7].nic.mac1609_4 retriesExceeded:count 0
attr source org_car2x_veins_modules_mac_sigRetriesExceeded
scalar RSUExampleScenario.node[7].nic.mac1609_4 sentAcks:count 0
attr source org_car2x_veins_modules_mac_sigSentAck
scalar RSUExampleScenario.node[7].nic.mac1609_4 sentPackets:count 1060
attr source org_car2x_veins_modules_mac_sigSentPacket
scalar RSUExampleScenario.node[7].nic.mac1609_4 collisions:count 0
attr source org_car2x_veins_modules_mac_sigCollision
scalar RSUExampleScenario.node[7].nic.mac1609_4 channelBusy:timeavg 0.057494126534514
attr source org_car2x_veins_modules_mac_sigChannelBusy
scalar RSUExampleScenario.node[7].veinsmobility startTime 4.6
scalar RSUExampleScenario.node[7].veinsmobility totalTime 105.8
scalar RSUExampleScenario.node[7].veinsmobility stopTime 110.5
scalar RSUExampleScenario.node[7].veinsmobility minSpeed 1.0733916286479e-05
scalar RSUExampleScenario.node[7].veinsmobility maxSpeed 9.4538947295119
scalar RSUExampleScenario.node[7].veinsmobility totalDistance 746.52532444551
scalar RSUExampleScenario.node[7].veinsmobility totalCO2Emission 223.94803344966
scalar RSUExampleScenario.node[9].appl generatedWSMs 1
scalar RSUExampleScenario.node[9].appl receivedWSMs 90
scalar RSUExampleScenario.node[9].appl generatedBSMs 1060
scalar RSUExampleScenario.node[9].appl receivedBSMs 54145
scalar RSUExampleScenario.node[9].appl generatedWSAs 0
scalar RSUExampleScenario.node[9].appl receivedWSAs 0
scalar RSUExampleScenario.node[9].nic.phy80211p busyTime 0.058308754717033
scalar RSUExampleScenario.node[9].nic.mac1609_4 ReceivedUnicastPackets 0
scalar RSUExampleScenario.node[9].nic.mac1609_4 ReceivedBroadcasts 54235
scalar RSUExampleScenario.node[9].nic.mac1609_4 SentPackets 1061
scalar RSUExampleScenario.node[9].nic.mac1609_4 SentAcknowledgements 0
scalar RSUExampleScenario.node[9].nic.mac1609_4 RetriesExceeded 0
scalar RSUExampleScenario.node[9].nic.mac1609_4 SNIRLostPackets 5072
scalar RSUExampleScenario.node[9].nic.mac1609_4 RXTXLostPackets 0
scalar RSUExampleScenario.node[9].nic.mac1609_4 TotalLostPackets 5072
scalar RSUExampleScenario.node[9].nic.mac1609_4 DroppedPacketsInMac 0
scalar RSUExampleScenario.node[9].nic.mac1609_4 TooLittleTime 0
scalar RSUExampleScenario.node[9].nic.mac1609_4 TimesIntoBackoff 1062
scalar RSUExampleScenario.node[9].nic.mac1609_4 SlotsBackoff 1622
scalar RSUExampleScenario.node[9].nic.mac1609_4 NumInternalContention 0
scalar RSUExampleScenario.node[9].nic.mac1609_4 totalBusyTime 6.234125
scalar RSUExampleScenario.node[9].nic.mac1609_4 retriesExceeded:count 0
attr source org_car2x_veins_modules_mac_sigRetriesExceeded
scalar RSUExampleScenario.node[9].nic.mac1609_4 sentAcks:count 0
attr source org_car2x_veins_modules_mac_sigSentAck
scalar RSUExampleScenario.node[9].nic.mac1609_4 sentPackets:count 1061
attr source org_car2x_veins_modules_mac_sigSentPacket
scalar RSUExampleScenario.node[9].nic.mac1609_4 collisions:count 0
attr source org_car2x_veins_modules_mac_sigCollision
scalar RSUExampleScenario.node[9].nic.mac1609_4 channelBusy:timeavg 0.058812500000052
attr source org_car2x_veins_modules_mac_sigChannelBusy
scalar RSUExampleScenario.node[9].veinsmobility startTime 6.2
scalar RSUExampleScenario.node[9].veinsmobility totalTime 105.9
scalar RSUExampleScenario.node[9].veinsmobility stopTime 112.2
scalar RSUExampleScenario.node[9].veinsmobility minSpeed 8.2180794660208e-05
scalar RSUExampleScenario.node[9].veinsmobility maxSpeed 10.519198553201
scalar RSUExampleScenario.node[9].veinsmobility totalDistance 746.44463610768
scalar RSUExampleScenario.node[9].veinsmobility totalCO2Emission 232.56455141493
scalar RSUExampleScenario.node[10].appl generatedWSMs 1
scalar RSUExampleScenario.node[10].appl receivedWSMs 91
scalar RSUExampleScenario.node[10].appl generatedBSMs 1058
scalar RSUExampleScenario.node[10].appl receivedBSMs 55421
scalar RSUExampleScenario.node[10].appl generatedWSAs 0
scalar RSUExampleScenario.node[10].appl receivedWSAs 0
scalar RSUExampleScenario.node[10].nic.phy80211p busyTime 0.059700264650339
scalar RSUExampleScenario.node[10].nic.mac1609_4 ReceivedUnicastPackets 0
scalar RSUExampleScenario.node[10].nic.mac1609_4 ReceivedBroadcasts 55512
scalar RSUExampleScenario.node[10].nic.mac1609_4 SentPackets 1059
scalar RSUExampleScenario.node[10].nic.mac1609_4 SentAcknowledgements 0
scalar RSUExampleScenario.node[10].nic.mac1609_4 RetriesExceeded 0
scalar RSUExampleScenario.node[10].nic.mac1609_4 SNIRLostPackets 5096
scalar RSUExampleScenario.node[10].nic.mac1609_4 RXTXLostPackets 0
scalar RSUExampleScenario.node[10].nic.mac1609_4 TotalLostPackets 5096
scalar RSUExampleScenario.node[10].nic.mac1609_4 DroppedPacketsInMac 0
scalar RSUExampleScenario.node[10].nic.mac1609_4 TooLittleTime 0
scalar RSUExampleScenario.node[10].nic.mac1609_4 TimesIntoBackoff 1062
scalar RSUExampleScenario.node[10].nic.mac1609_4 SlotsBackoff 1594
scalar RSUExampleScenario.node[10].nic.mac1609_4 NumInternalContention 0
scalar RSUExampleScenario.node[10].nic.mac1609_4 totalBusyTime 6.365939
scalar RSUExampleScenario.node[10].nic.mac1609_4 retriesExceeded:count 0
attr source org_car2x_veins_modules_mac_sigRetriesExceeded
scalar RSUExampleScenario.node[10].nic.mac1609_4 sentAcks:count 0
attr source org_car2x_veins_modules_mac_sigSentAck
scalar RSUExampleScenario.node[10].nic.mac1609_4 sentPackets:count 1059
attr source org_car2x_veins_modules_mac_sigSentPacket
scalar RSUExampleScenario.node[10].nic.mac1609_4 collisions:count 0
attr source org_car2x_veins_modules_mac_sigCollision
scalar RSUExampleScenario.node[10].nic.mac1609_4 channelBusy:timeavg 0.060169555765651
attr source org_car2x_veins_modules_mac_sigChannelBusy
scalar RSUExampleScenario.node[10].veinsmobility startTime 8
scalar RSUExampleScenario.node[10].veinsmobility totalTime 105.7
scalar RSUExampleScenario.node[10].veinsmobility stopTime 113.8
scalar RSUExampleScenario.node[10].veinsmobility minSpeed 0.00031941151595564
scalar RSUExampleScenario.node[10].veinsmobility maxSpeed 12.334744865371
scalar RSUExampleScenario.node[10].veinsmobility totalDistance 746.85208274597
scalar RSUExampleScenario.node[10].veinsmobility totalCO2Emission 245.656477171
scalar RSUExampleScenario.node[12].appl generatedWSMs 1
scalar RSUExampleScenario.node[12].appl receivedWSMs 94
scalar RSUExampleScenario.node[12].appl generatedBSMs 1069
scalar RSUExampleScenario.node[12].appl receivedBSMs 57691
scalar RSUExampleScenario.node[12].appl generatedWSAs 0
scalar RSUExampleScenario.node[12].appl receivedWSAs 0
scalar RSUExampleScenario.node[12].nic.phy80211p busyTime 0.061662787652075
scalar RSUExampleScenario.node[12].nic.mac1609_4 ReceivedUnicastPackets 0
scalar RSUExampleScenario.node[12].nic.mac1609_4 ReceivedBroadcasts 57785
scalar RSUExampleScenario.node[12].nic.mac1609_4 SentPackets 1070
scalar RSUExampleScenario.node[12].nic.mac1609_4 SentAcknowledgements 0
scalar RSUExampleScenario.node[12].nic.mac1609_4 RetriesExceeded 0
scalar RSUExampleScenario.node[12].nic.mac1609_4 SNIRLostPackets 5468
scalar RSUExampleScenario.node[12].nic.mac1609_4 RXTXLostPackets 0
scalar RSUExampleScenario.node[12].nic.mac1609_4 TotalLostPackets 5468
scalar RSUExampleScenario.node[12].nic.mac1609_4 DroppedPacketsInMac 0
scalar RSUExampleScenario.node[12].nic.mac1609_4 TooLittleTime 0
scalar RSUExampleScenario.node[12].nic.mac1609_4 TimesIntoBackoff 1071
scalar RSUExampleScenario.node[12].nic.mac1609_4 SlotsBackoff 1609
scalar RSUExampleScenario.node[12].nic.mac1609_4 NumInternalContention 0
scalar RSUExampleScenario.node[12].nic.mac1609_4 totalBusyTime 6.635278323002
scalar RSUExampleScenario.node[12].nic.mac1609_4 retriesExceeded:count 0
attr source org_car2x_veins_modules_mac_sigRetriesExceeded
scalar RSUExampleScenario.node[12].nic.mac1609_4 sentAcks:count 0
attr source org_car2x_veins_modules_mac_sigSentAck
scalar RSUExampleScenario.node[12].nic.mac1609_4 sentPackets:count 1070
attr source org_car2x_veins_modules_mac_sigSentPacket
scalar RSUExampleScenario.node[12].nic.mac1609_4 collisions:count 0
attr source org_car2x_veins_modules_mac_sigCollision
scalar RSUExampleScenario.node[12].nic.mac1609_4 channelBusy:timeavg 0.062069956248912
attr source org_car2x_veins_modules_mac_sigChannelBusy
scalar RSUExampleScenario.node[12].veinsmobility startTime 10
scalar RSUExampleScenario.node[12].veinsmobility totalTime 106.8
scalar RSUExampleScenario.node[12].veinsmobility stopTime 116.9
scalar RSUExampleScenario.node[12].veinsmobility minSpeed 0.0010532371748085
scalar RSUExampleScenario.node[12].veinsmobility maxSpeed 9.4506018026053
scalar RSUExampleScenario.node[12].veinsmobility totalDistance 747.02817940805
scalar RSUExampleScenario.node[12].veinsmobility totalCO2Emission 226.83208014075
scalar RSUExampleScenario.node[28].appl generatedWSMs 1
scalar RSUExampleScenario.node[28].appl receivedWSMs 93
scalar RSUExampleScenario.node[28].appl generatedBSMs 915
scalar RSUExampleScenario.node[28].appl receivedBSMs 54621
scalar RSUExampleScenario.node[28].appl generatedWSAs 0
scalar RSUExampleScenario.node[28].appl receivedWSAs 0
scalar RSUExampleScenario.node[28].nic.phy80211p busyTime 0.069147191256896
scalar RSUExampleScenario.node[28].nic.mac1609_4 ReceivedUnicastPackets 0
scalar RSUExampleScenario.node[28].nic.mac1609_4 ReceivedBroadcasts 54714
scalar RSUExampleScenario.node[28].nic.mac1609_4 SentPackets 916
scalar RSUExampleScenario.node[28].nic.mac1609_4 SentAcknowledgements 0
scalar RSUExampleScenario.node[28].nic.mac1609_4 RetriesExceeded 0
scalar RSUExampleScenario.node[28].nic.mac1609_4 SNIRLostPackets 5993
scalar RSUExampleScenario.node[28].nic.mac1609_4 RXTXLostPackets 0
scalar RSUExampleScenario.node[28].nic.mac1609_4 TotalLostPackets 5993
scalar RSUExampleScenario.node[28].nic.mac1609_4 DroppedPacketsInMac 0
scalar RSUExampleScenario.node[28].nic.mac1609_4 TooLittleTime 0
scalar RSUExampleScenario.node[28].nic.mac1609_4 TimesIntoBackoff 916
scalar RSUExampleScenario.node[28].nic.mac1609_4 SlotsBackoff 1429
scalar RSUExampleScenario.node[28].nic.mac1609_4 NumInternalContention 0
scalar RSUExampleScenario.node[28].nic.mac1609_4 totalBusyTime 6.352868
scalar RSUExampleScenario.node[28].nic.mac1609_4 retriesExceeded:count 0
attr source org_car2x_veins_modules_mac_sigRetriesExceeded
scalar RSUExampleScenario.node[28].nic.mac1609_4 sentAcks:count 0
attr source org_car2x_veins_modules_mac_sigSentAck
scalar RSUExampleScenario.node[28].nic.mac1609_4 sentPackets:count 916
attr source org_car2x_veins_modules_mac_sigSentPacket
scalar RSUExampleScenario.node[28].nic.mac1609_4 collisions:count 0
attr source org_car2x_veins_modules_mac_sigCollision
scalar RSUExampleScenario.node[28].nic.mac1609_4 channelBusy:timeavg 0.069430251366184
attr source org_car2x_veins_modules_mac_sigChannelBusy
scalar RSUExampleScenario.node[28].veinsmobility startTime 26.1
scalar RSUExampleScenario.node[28].veinsmobility totalTime 91.4
scalar RSUExampleScenario.node[28].veinsmobility stopTime 117.6
scalar RSUExampleScenario.node[28].veinsmobility minSpeed 4.0548985161838
scalar RSUExampleScenario.node[28].veinsmobility maxSpeed 8.8913038388948
scalar RSUExampleScenario.node[28].veinsmobility totalDistance 749.42934733173
scalar RSUExampleScenario.node[28].veinsmobility totalCO2Emission 204.50787601981
scalar RSUExampleScenario.node[30].appl generatedWSMs 1
scalar RSUExampleScenario.node[30].appl receivedWSMs 95
scalar RSUExampleScenario.node[30].appl generatedBSMs 913
scalar RSUExampleScenario.node[30].appl receivedBSMs 55585
scalar RSUExampleScenario.node[30].appl generatedWSAs 0
scalar RSUExampleScenario.node[30].appl receivedWSAs 0
scalar RSUExampleScenario.node[30].nic.phy80211p busyTime 0.070548784227889
scalar RSUExampleScenario.node[30].nic.mac1609_4 ReceivedUnicastPackets 0
scalar RSUExampleScenario.node[30].nic.mac1609_4 ReceivedBroadcasts 55680
scalar RSUExampleScenario.node[30].nic.mac1609_4 SentPackets 914
scalar RSUExampleScenario.node[30].nic.mac1609_4 SentAcknowledgements 0
scalar RSUExampleScenario.node[30].nic.mac1609_4 RetriesExceeded 0
scalar RSUExampleScenario.node[30].nic.mac1609_4 SNIRLostPackets 6122
scalar RSUExampleScenario.node[30].nic.mac1609_4 RXTXLostPackets 0
scalar RSUExampleScenario.node[30].nic.mac1609_4 TotalLostPackets 6122
scalar RSUExampleScenario.node[30].nic.mac1609_4 DroppedPacketsInMac 0
scalar RSUExampleScenario.node[30].nic.mac1609_4 TooLittleTime 0
scalar RSUExampleScenario.node[30].nic.mac1609_4 TimesIntoBackoff 914
scalar RSUExampleScenario.node[30].nic.mac1609_4 SlotsBackoff 1391
scalar RSUExampleScenario.node[30].nic.mac1609_4 NumInternalContention 0
scalar RSUExampleScenario.node[30].nic.mac1609_4 totalBusyTime 6.463258
scalar RSUExampleScenario.node[30].nic.mac1609_4 retriesExceeded:count 0
attr source org_car2x_veins_modules_mac_sigRetriesExceeded
scalar RSUExampleScenario.node[30].nic.mac1609_4 sentAcks:count 0
attr source org_car2x_veins_modules_mac_sigSentAck
scalar RSUExampleScenario.node[30].nic.mac1609_4 sentPackets:count 914
attr source org_car2x_veins_modules_mac_sigSentPacket
scalar RSUExampleScenario.node[30].nic.mac1609_4 collisions:count 0
attr source org_car2x_veins_modules_mac_sigCollision
scalar RSUExampleScenario.node[30].nic.mac1609_4 channelBusy:timeavg 0.070791434830298
attr source org_car2x_veins_modules_mac_sigChannelBusy
scalar RSUExampleScenario.node[30].veinsmobility startTime 28.1
scalar RSUExampleScenario.node[30].veinsmobility totalTime 91.2
scalar RSUExampleScenario.node[30].veinsmobility stopTime 119.4
scalar RSUExampleScenario.node[30].veinsmobility minSpeed 4.1314306297068
scalar RSUExampleScenario.node[30].veinsmobility maxSpeed 9.2521428660531
scalar RSUExampleScenario.node[30].veinsmobility totalDistance 749.38094970357
scalar RSUExampleScenario.node[30].veinsmobility totalCO2Emission 216.31963738257
scalar RSUExampleScenario.node[14].appl generatedWSMs 1
scalar RSUExampleScenario.node[14].appl receivedWSMs 95
scalar RSUExampleScenario.node[14].appl generatedBSMs 1077
scalar RSUExampleScenario.node[14].appl receivedBSMs 59859
scalar RSUExampleScenario.node[14].appl generatedWSAs 0
scalar RSUExampleScenario.node[14].appl receivedWSAs 0
scalar RSUExampleScenario.node[14].nic.phy80211p busyTime 0.063105589600812
scalar RSUExampleScenario.node[14].nic.mac1609_4 ReceivedUnicastPackets 0
scalar RSUExampleScenario.node[14].nic.mac1609_4 ReceivedBroadcasts 59954
scalar RSUExampleScenario.node[14].nic.mac1609_4 SentPackets 1078
scalar RSUExampleScenario.node[14].nic.mac1609_4 SentAcknowledgements 0
scalar RSUExampleScenario.node[14].nic.mac1609_4 RetriesExceeded 0
scalar RSUExampleScenario.node[14].nic.mac1609_4 SNIRLostPackets 5265
scalar RSUExampleScenario.node[14].nic.mac1609_4 RXTXLostPackets 452
scalar RSUExampleScenario.node[14].nic.mac1609_4 TotalLostPackets 5717
scalar RSUExampleScenario.node[14].nic.mac1609_4 DroppedPacketsInMac 0
scalar RSUExampleScenario.node[14].nic.mac1609_4 TooLittleTime 0
scalar RSUExampleScenario.node[14].nic.mac1609_4 TimesIntoBackoff 1080
scalar RSUExampleScenario.node[14].nic.mac1609_4 SlotsBackoff 1616
scalar RSUExampleScenario.node[14].nic.mac1609_4 NumInternalContention 0
scalar RSUExampleScenario.node[14].nic.mac1609_4 totalBusyTime 6.882022
scalar RSUExampleScenario.node[14].nic.mac1609_4 retriesExceeded:count 0
attr source org_car2x_veins_modules_mac_sigRetriesExceeded
scalar RSUExampleScenario.node[14].nic.mac1609_4 sentAcks:count 0
attr source org_car2x_veins_modules_mac_sigSentAck
scalar RSUExampleScenario.node[14].nic.mac1609_4 sentPackets:count 1078
attr source org_car2x_veins_modules_mac_sigSentPacket
scalar RSUExampleScenario.node[14].nic.mac1609_4 collisions:count 0
attr source org_car2x_veins_modules_mac_sigCollision
scalar RSUExampleScenario.node[14].nic.mac1609_4 channelBusy:timeavg 0.063899925719661
attr source org_car2x_veins_modules_mac_sigChannelBusy
scalar RSUExampleScenario.node[14].veinsmobility startTime 12.1
scalar RSUExampleScenario.node[14].veinsmobility totalTime 107.6
scalar RSUExampleScenario.node[14].veinsmobility stopTime 119.8
scalar RSUExampleScenario.node[14].veinsmobility minSpeed 0.002697965180252
scalar RSUExampleScenario.node[14].veinsmobility maxSpeed 9.3183008541334
scalar RSUExampleScenario.node[14].veinsmobility totalDistance 747.17805665228
scalar RSUExampleScenario.node[14].veinsmobility totalCO2Emission 224.1785312771
scalar RSUExampleScenario.manager roiArea 0
scalar RSUExampleScenario.node[4].appl generatedWSMs 1
scalar RSUExampleScenario.node[4].appl receivedWSMs 107
scalar RSUExampleScenario.node[4].appl generatedBSMs 1179
scalar RSUExampleScenario.node[4].appl receivedBSMs 65591
scalar RSUExampleScenario.node[4].appl generatedWSAs 0
scalar RSUExampleScenario.node[4].appl receivedWSAs 0
scalar RSUExampleScenario.node[4].nic.phy80211p busyTime 0.058985988125597
scalar RSUExampleScenario.node[4].nic.mac1609_4 ReceivedUnicastPackets 0
scalar RSUExampleScenario.node[4].nic.mac1609_4 ReceivedBroadcasts 65698
scalar RSUExampleScenario.node[4].nic.mac1609_4 SentPackets 1180
scalar RSUExampleScenario.node[4].nic.mac1609_4 SentAcknowledgements 0
scalar RSUExampleScenario.node[4].nic.mac1609_4 RetriesExceeded 0
scalar RSUExampleScenario.node[4].nic.mac1609_4 SNIRLostPackets 1040
scalar RSUExampleScenario.node[4].nic.mac1609_4 RXTXLostPackets 0
scalar RSUExampleScenario.node[4].nic.mac1609_4 TotalLostPackets 1040
scalar RSUExampleScenario.node[4].nic.mac1609_4 DroppedPacketsInMac 0
scalar RSUExampleScenario.node[4].nic.mac1609_4 TooLittleTime 0
scalar RSUExampleScenario.node[4].nic.mac1609_4 TimesIntoBackoff 1180
scalar RSUExampleScenario.node[4].nic.mac1609_4 SlotsBackoff 1789
scalar RSUExampleScenario.node[4].nic.mac1609_4 NumInternalContention 0
scalar RSUExampleScenario.node[4].nic.mac1609_4 totalBusyTime 7.003388
scalar RSUExampleScenario.node[4].nic.mac1609_4 retriesExceeded:count 0
attr source org_car2x_veins_modules_mac_sigRetriesExceeded
scalar RSUExampleScenario.node[4].nic.mac1609_4 sentAcks:count 0
attr source org_car2x_veins_modules_mac_sigSentAck
scalar RSUExampleScenario.node[4].nic.mac1609_4 sentPackets:count 1180
attr source org_car2x_veins_modules_mac_sigSentPacket
scalar RSUExampleScenario.node[4].nic.mac1609_4 collisions:count 0
attr source org_car2x_veins_modules_mac_sigCollision
scalar RSUExampleScenario.node[4].nic.mac1609_4 channelBusy:timeavg 0.059401085665885
attr source org_car2x_veins_modules_mac_sigChannelBusy
scalar RSUExampleScenario.node[4].veinsmobility startTime 2.1
scalar RSUExampleScenario.node[4].veinsmobility totalTime 117.9
scalar RSUExampleScenario.node[4].veinsmobility stopTime 120
scalar RSUExampleScenario.node[4].veinsmobility minSpeed 0
scalar RSUExampleScenario.node[4].veinsmobility maxSpeed 8.8310686253095
scalar RSUExampleScenario.node[4].veinsmobility totalDistance 236.3989994456
scalar RSUExampleScenario.node[4].veinsmobility totalCO2Emission 146.22177287197
scalar RSUExampleScenario.node[6].appl generatedWSMs 1
scalar RSUExampleScenario.node[6].appl receivedWSMs 107
scalar RSUExampleScenario.node[6].appl generatedBSMs 1159
scalar RSUExampleScenario.node[6].appl receivedBSMs 64622
scalar RSUExampleScenario.node[6].appl generatedWSAs 0
scalar RSUExampleScenario.node[6].appl receivedWSAs 0
scalar RSUExampleScenario.node[6].nic.phy80211p busyTime 0.059924003451319
scalar RSUExampleScenario.node[6].nic.mac1609_4 ReceivedUnicastPackets 0
scalar RSUExampleScenario.node[6].nic.mac1609_4 ReceivedBroadcasts 64729
scalar RSUExampleScenario.node[6].nic.mac1609_4 SentPackets 1160
scalar RSUExampleScenario.node[6].nic.mac1609_4 SentAcknowledgements 0
scalar RSUExampleScenario.node[6].nic.mac1609_4 RetriesExceeded 0
scalar RSUExampleScenario.node[6].nic.mac1609_4 SNIRLostPackets 1920
scalar RSUExampleScenario.node[6].nic.mac1609_4 RXTXLostPackets 0
scalar RSUExampleScenario.node[6].nic.mac1609_4 TotalLostPackets 1920
scalar RSUExampleScenario.node[6].nic.mac1609_4 DroppedPacketsInMac 0
scalar RSUExampleScenario.node[6].nic.mac1609_4 TooLittleTime 0
scalar RSUExampleScenario.node[6].nic.mac1609_4 TimesIntoBackoff 1160
scalar RSUExampleScenario.node[6].nic.mac1609_4 SlotsBackoff 1647
scalar RSUExampleScenario.node[6].nic.mac1609_4 NumInternalContention 0
scalar RSUExampleScenario.node[6].nic.mac1609_4 totalBusyTime 6.992032
scalar RSUExampleScenario.node[6].nic.mac1609_4 retriesExceeded:count 0
attr source org_car2x_veins_modules_mac_sigRetriesExceeded
scalar RSUExampleScenario.node[6].nic.mac1609_4 sentAcks:count 0
attr source org_car2x_veins_modules_mac_sigSentAck
scalar RSUExampleScenario.node[6].nic.mac1609_4 sentPackets:count 1160
attr source org_car2x_veins_modules_mac_sigSentPacket
scalar RSUExampleScenario.node[6].nic.mac1609_4 collisions:count 0
attr source org_car2x_veins_modules_mac_sigCollision
scalar RSUExampleScenario.node[6].nic.mac1609_4 channelBusy:timeavg 0.060328144952613
attr source org_car2x_veins_modules_mac_sigChannelBusy
scalar RSUExampleScenario.node[6].veinsmobility startTime 4.1
scalar RSUExampleScenario.node[6].veinsmobility totalTime 115.9
scalar RSUExampleScenario.node[6].veinsmobility stopTime 120
scalar RSUExampleScenario.node[6].veinsmobility minSpeed 0
scalar RSUExampleScenario.node[6].veinsmobility maxSpeed 7.6438986749161
scalar RSUExampleScenario.node[6].veinsmobility totalDistance 531.96594841178
scalar RSUExampleScenario.node[6].veinsmobility totalCO2Emission 191.66619059421
scalar RSUExampleScenario.node[11].appl generatedWSMs 1
scalar RSUExampleScenario.node[11].appl receivedWSMs 107
scalar RSUExampleScenario.node[11].appl generatedBSMs 1119
scalar RSUExampleScenario.node[11].appl receivedBSMs 65185
scalar RSUExampleScenario.node[11].appl generatedWSAs 0
scalar RSUExampleScenario.node[11].appl receivedWSAs 0
scalar RSUExampleScenario.node[11].nic.phy80211p busyTime 0.061773297587201
scalar RSUExampleScenario.node[11].nic.mac1609_4 ReceivedUnicastPackets 0
scalar RSUExampleScenario.node[11].nic.mac1609_4 ReceivedBroadcasts 65292
scalar RSUExampleScenario.node[11].nic.mac1609_4 SentPackets 1120
scalar RSUExampleScenario.node[11].nic.mac1609_4 SentAcknowledgements 0
scalar RSUExampleScenario.node[11].nic.mac1609_4 RetriesExceeded 0
scalar RSUExampleScenario.node[11].nic.mac1609_4 SNIRLostPackets 1042
scalar RSUExampleScenario.node[11].nic.mac1609_4 RXTXLostPackets 0
scalar RSUExampleScenario.node[11].nic.mac1609_4 TotalLostPackets 1042
scalar RSUExampleScenario.node[11].nic.mac1609_4 DroppedPacketsInMac 0
scalar RSUExampleScenario.node[11].nic.mac1609_4 TooLittleTime 0
scalar RSUExampleScenario.node[11].nic.mac1609_4 TimesIntoBackoff 1120
scalar RSUExampleScenario.node[11].nic.mac1609_4 SlotsBackoff 1676
scalar RSUExampleScenario.node[11].nic.mac1609_4 NumInternalContention 0
scalar RSUExampleScenario.node[11].nic.mac1609_4 totalBusyTime 6.955072
scalar RSUExampleScenario.node[11].nic.mac1609_4 retriesExceeded:count 0
attr source org_car2x_veins_modules_mac_sigRetriesExceeded
scalar RSUExampleScenario.node[11].nic.mac1609_4 sentAcks:count 0
attr source org_car2x_veins_modules_mac_sigSentAck
scalar RSUExampleScenario.node[11].nic.mac1609_4 sentPackets:count 1120
attr source org_car2x_veins_modules_mac_sigSentPacket
scalar RSUExampleScenario.node[11].nic.mac1609_4 collisions:count 0
attr source org_car2x_veins_modules_mac_sigCollision
scalar RSUExampleScenario.node[11].nic.mac1609_4 channelBusy:timeavg 0.062154352100158
attr source org_car2x_veins_modules_mac_sigChannelBusy
scalar RSUExampleScenario.node[11].veinsmobility startTime 8.1
scalar RSUExampleScenario.node[11].veinsmobility totalTime 111.9
scalar RSUExampleScenario.node[11].veinsmobility stopTime 120
scalar RSUExampleScenario.node[11].veinsmobility minSpeed 0
scalar RSUExampleScenario.node[11].veinsmobility maxSpeed 9.8623530819028
scalar RSUExampleScenario.node[11].veinsmobility totalDistance 228.89798959414
scalar RSUExampleScenario.node[11].veinsmobility totalCO2Emission 147.19413014864
scalar RSUExampleScenario.node[15].appl generatedWSMs 1
scalar RSUExampleScenario.node[15].appl receivedWSMs 107
scalar RSUExampleScenario.node[15].appl generatedBSMs 1079
scalar RSUExampleScenario.node[15].appl receivedBSMs 63934
scalar RSUExampleScenario.node[15].appl generatedWSAs 0
scalar RSUExampleScenario.node[15].appl receivedWSAs 0
scalar RSUExampleScenario.node[15].nic.phy80211p busyTime 0.063599703429172
scalar RSUExampleScenario.node[15].nic.mac1609_4 ReceivedUnicastPackets 0
scalar RSUExampleScenario.node[15].nic.mac1609_4 ReceivedBroadcasts 64041
scalar RSUExampleScenario.node[15].nic.mac1609_4 SentPackets 1080
scalar RSUExampleScenario.node[15].nic.mac1609_4 SentAcknowledgements 0
scalar RSUExampleScenario.node[15].nic.mac1609_4 RetriesExceeded 0
scalar RSUExampleScenario.node[15].nic.mac1609_4 SNIRLostPackets 1812
scalar RSUExampleScenario.node[15].nic.mac1609_4 RXTXLostPackets 0
scalar RSUExampleScenario.node[15].nic.mac1609_4 TotalLostPackets 1812
scalar RSUExampleScenario.node[15].nic.mac1609_4 DroppedPacketsInMac 0
scalar RSUExampleScenario.node[15].nic.mac1609_4 TooLittleTime 0
scalar RSUExampleScenario.node[15].nic.mac1609_4 TimesIntoBackoff 1080
scalar RSUExampleScenario.node[15].nic.mac1609_4 SlotsBackoff 1643
scalar RSUExampleScenario.node[15].nic.mac1609_4 NumInternalContention 0
scalar RSUExampleScenario.node[15].nic.mac1609_4 totalBusyTime 6.900848
scalar RSUExampleScenario.node[15].nic.mac1609_4 retriesExceeded:count 0
attr source org_car2x_veins_modules_mac_sigRetriesExceeded
scalar RSUExampleScenario.node[15].nic.mac1609_4 sentAcks:count 0
attr source org_car2x_veins_modules_mac_sigSentAck
scalar RSUExampleScenario.node[15].nic.mac1609_4 sentPackets:count 1080
attr source org_car2x_veins_modules_mac_sigSentPacket
scalar RSUExampleScenario.node[15].nic.mac1609_4 collisions:count 0
attr source org_car2x_veins_modules_mac_sigCollision
scalar RSUExampleScenario.node[15].nic.mac1609_4 channelBusy:timeavg 0.063955959221571
attr source org_car2x_veins_modules_mac_sigChannelBusy
scalar RSUExampleScenario.node[15].veinsmobility startTime 12.1
scalar RSUExampleScenario.node[15].veinsmobility totalTime 107.9
scalar RSUExampleScenario.node[15].veinsmobility stopTime 120
scalar RSUExampleScenario.node[15].veinsmobility minSpeed 0
scalar RSUExampleScenario.node[15].veinsmobility maxSpeed 9.3758230726338
scalar RSUExampleScenario.node[15].veinsmobility totalDistance 516.57087432433
scalar RSUExampleScenario.node[15].veinsmobility totalCO2Emission 187.05263406084
scalar RSUExampleScenario.node[17].appl generatedWSMs 1
scalar RSUExampleScenario.node[17].appl receivedWSMs 96
scalar RSUExampleScenario.node[17].appl generatedBSMs 1057
scalar RSUExampleScenario.node[17].appl receivedBSMs 59863
scalar RSUExampleScenario.node[17].appl generatedWSAs 0
scalar RSUExampleScenario.node[17].appl receivedWSAs 0
scalar RSUExampleScenario.node[17].nic.phy80211p busyTime 0.064596783349172
scalar RSUExampleScenario.node[17].nic.mac1609_4 ReceivedUnicastPackets 0
scalar RSUExampleScenario.node[17].nic.mac1609_4 ReceivedBroadcasts 59959
scalar RSUExampleScenario.node[17].nic.mac1609_4 SentPackets 1058
scalar RSUExampleScenario.node[17].nic.mac1609_4 SentAcknowledgements 0
scalar RSUExampleScenario.node[17].nic.mac1609_4 RetriesExceeded 0
scalar RSUExampleScenario.node[17].nic.mac1609_4 SNIRLostPackets 5562
scalar RSUExampleScenario.node[17].nic.mac1609_4 RXTXLostPackets 0
scalar RSUExampleScenario.node[17].nic.mac1609_4 TotalLostPackets 5562
scalar RSUExampleScenario.node[17].nic.mac1609_4 DroppedPacketsInMac 0
scalar RSUExampleScenario.node[17].nic.mac1609_4 TooLittleTime 0
scalar RSUExampleScenario.node[17].nic.mac1609_4 TimesIntoBackoff 1058
scalar RSUExampleScenario.node[17].nic.mac1609_4 SlotsBackoff 1596
scalar RSUExampleScenario.node[17].nic.mac1609_4 NumInternalContention 0
scalar RSUExampleScenario.node[17].nic.mac1609_4 totalBusyTime 6.864044984755
scalar RSUExampleScenario.node[17].nic.mac1609_4 retriesExceeded:count 0
attr source org_car2x_veins_modules_mac_sigRetriesExceeded
scalar RSUExampleScenario.node[17].nic.mac1609_4 sentAcks:count 0
attr source org_car2x_veins_modules_mac_sigSentAck
scalar RSUExampleScenario.node[17].nic.mac1609_4 sentPackets:count 1058
attr source org_car2x_veins_modules_mac_sigSentPacket
scalar RSUExampleScenario.node[17].nic.mac1609_4 collisions:count 0
attr source org_car2x_veins_modules_mac_sigCollision
scalar RSUExampleScenario.node[17].nic.mac1609_4 channelBusy:timeavg 0.064938930792453
attr source org_car2x_veins_modules_mac_sigChannelBusy
scalar RSUExampleScenario.node[17].veinsmobility startTime 14.3
scalar RSUExampleScenario.node[17].veinsmobility totalTime 105.7
scalar RSUExampleScenario.node[17].veinsmobility stopTime 120
scalar RSUExampleScenario.node[17].veinsmobility minSpeed 0.0058439600899475
scalar RSUExampleScenario.node[17].veinsmobility maxSpeed 10.067064630997
scalar RSUExampleScenario.node[17].veinsmobility totalDistance 732.86715438562
scalar RSUExampleScenario.node[17].veinsmobility totalCO2Emission 232.61741929384
scalar RSUExampleScenario.node[18].appl generatedWSMs 1
scalar RSUExampleScenario.node[18].appl receivedWSMs 107
scalar RSUExampleScenario.node[18].appl generatedBSMs 1039
scalar RSUExampleScenario.node[18].appl receivedBSMs 64077
scalar RSUExampleScenario.node[18].appl generatedWSAs 0
scalar RSUExampleScenario.node[18].appl receivedWSAs 0
scalar RSUExampleScenario.node[18].nic.phy80211p busyTime 0.065409586140591
scalar RSUExampleScenario.node[18].nic.mac1609_4 ReceivedUnicastPackets 0
scalar RSUExampleScenario.node[18].nic.mac1609_4 ReceivedBroadcasts 64184
scalar RSUExampleScenario.node[18].nic.mac1609_4 SentPackets 1040
scalar RSUExampleScenario.node[18].nic.mac1609_4 SentAcknowledgements 0
scalar RSUExampleScenario.node[18].nic.mac1609_4 RetriesExceeded 0
scalar RSUExampleScenario.node[18].nic.mac1609_4 SNIRLostPackets 1031
scalar RSUExampleScenario.node[18].nic.mac1609_4 RXTXLostPackets 0
scalar RSUExampleScenario.node[18].nic.mac1609_4 TotalLostPackets 1031
scalar RSUExampleScenario.node[18].nic.mac1609_4 DroppedPacketsInMac 0
scalar RSUExampleScenario.node[18].nic.mac1609_4 TooLittleTime 0
scalar RSUExampleScenario.node[18].nic.mac1609_4 TimesIntoBackoff 1040
scalar RSUExampleScenario.node[18].nic.mac1609_4 SlotsBackoff 1547
scalar RSUExampleScenario.node[18].nic.mac1609_4 NumInternalContention 0
scalar RSUExampleScenario.node[18].nic.mac1609_4 totalBusyTime 6.830296
scalar RSUExampleScenario.node[18].nic.mac1609_4 retriesExceeded:count 0
attr source org_car2x_veins_modules_mac_sigRetriesExceeded
scalar RSUExampleScenario.node[18].nic.mac1609_4 sentAcks:count 0
attr source org_car2x_veins_modules_mac_sigSentAck
scalar RSUExampleScenario.node[18].nic.mac1609_4 sentPackets:count 1040
attr source org_car2x_veins_modules_mac_sigSentPacket
scalar RSUExampleScenario.node[18].nic.mac1609_4 collisions:count 0
attr source org_car2x_veins_modules_mac_sigCollision
scalar RSUExampleScenario.node[18].nic.mac1609_4 channelBusy:timeavg 0.065739133782554
attr source org_car2x_veins_modules_mac_sigChannelBusy
scalar RSUExampleScenario.node[18].veinsmobility startTime 16.1
scalar RSUExampleScenario.node[18].veinsmobility totalTime 103.9
scalar RSUExampleScenario.node[18].veinsmobility stopTime 120
scalar RSUExampleScenario.node[18].veinsmobility minSpeed 0
scalar RSUExampleScenario.node[18].veinsmobility maxSpeed 10.843108476302
scalar RSUExampleScenario.node[18].veinsmobility totalDistance 221.39698015011
scalar RSUExampleScenario.node[18].veinsmobility totalCO2Emission 139.51345039676
scalar RSUExampleScenario.node[19].appl generatedWSMs 1
scalar RSUExampleScenario.node[19].appl receivedWSMs 100
scalar RSUExampleScenario.node[19].appl generatedBSMs 1038
scalar RSUExampleScenario.node[19].appl receivedBSMs 60125
scalar RSUExampleScenario.node[19].appl generatedWSAs 0
scalar RSUExampleScenario.node[19].appl receivedWSAs 0
scalar RSUExampleScenario.node[19].nic.phy80211p busyTime 0.06545456647406
scalar RSUExampleScenario.node[19].nic.mac1609_4 ReceivedUnicastPackets 0
scalar RSUExampleScenario.node[19].nic.mac1609_4 ReceivedBroadcasts 60225
scalar RSUExampleScenario.node[19].nic.mac1609_4 SentPackets 1039
scalar RSUExampleScenario.node[19].nic.mac1609_4 SentAcknowledgements 0
scalar RSUExampleScenario.node[19].nic.mac1609_4 RetriesExceeded 0
scalar RSUExampleScenario.node[19].nic.mac1609_4 SNIRLostPackets 4972
scalar RSUExampleScenario.node[19].nic.mac1609_4 RXTXLostPackets 0
scalar RSUExampleScenario.node[19].nic.mac1609_4 TotalLostPackets 4972
scalar RSUExampleScenario.node[19].nic.mac1609_4 DroppedPacketsInMac 0
scalar RSUExampleScenario.node[19].nic.mac1609_4 TooLittleTime 0
scalar RSUExampleScenario.node[19].nic.mac1609_4 TimesIntoBackoff 1040
scalar RSUExampleScenario.node[19].nic.mac1609_4 SlotsBackoff 1595
scalar RSUExampleScenario.node[19].nic.mac1609_4 NumInternalContention 0
scalar RSUExampleScenario.node[19].nic.mac1609_4 totalBusyTime 6.828319
scalar RSUExampleScenario.node[19].nic.mac1609_4 retriesExceeded:count 0
attr source org_car2x_veins_modules_mac_sigRetriesExceeded
scalar RSUExampleScenario.node[19].nic.mac1609_4 sentAcks:count 0
attr source org_car2x_veins_modules_mac_sigSentAck
scalar RSUExampleScenario.node[19].nic.mac1609_4 sentPackets:count 1039
attr source org_car2x_veins_modules_mac_sigSentPacket
scalar RSUExampleScenario.node[19].nic.mac1609_4 collisions:count 0
attr source org_car2x_veins_modules_mac_sigCollision
scalar RSUExampleScenario.node[19].nic.mac1609_4 channelBusy:timeavg 0.065783420038606
attr source org_car2x_veins_modules_mac_sigChannelBusy
scalar RSUExampleScenario.node[19].veinsmobility startTime 16.2
scalar RSUExampleScenario.node[19].veinsmobility totalTime 103.8
scalar RSUExampleScenario.node[19].veinsmobility stopTime 120
scalar RSUExampleScenario.node[19].veinsmobility minSpeed 0.011252883407524
scalar RSUExampleScenario.node[19].veinsmobility maxSpeed 10.387844591022
scalar RSUExampleScenario.node[19].veinsmobility totalDistance 715.66584847456
scalar RSUExampleScenario.node[19].veinsmobility totalCO2Emission 225.06949636125
scalar RSUExampleScenario.node[21].appl generatedWSMs 1
scalar RSUExampleScenario.node[21].appl receivedWSMs 107
scalar RSUExampleScenario.node[21].appl generatedBSMs 1017
scalar RSUExampleScenario.node[21].appl receivedBSMs 61623
scalar RSUExampleScenario.node[21].appl generatedWSAs 0
scalar RSUExampleScenario.node[21].appl receivedWSAs 0
scalar RSUExampleScenario.node[21].nic.phy80211p busyTime 0.066220176991221
scalar RSUExampleScenario.node[21].nic.mac1609_4 ReceivedUnicastPackets 0
scalar RSUExampleScenario.node[21].nic.mac1609_4 ReceivedBroadcasts 61730
scalar RSUExampleScenario.node[21].nic.mac1609_4 SentPackets 1018
scalar RSUExampleScenario.node[21].nic.mac1609_4 SentAcknowledgements 0
scalar RSUExampleScenario.node[21].nic.mac1609_4 RetriesExceeded 0
scalar RSUExampleScenario.node[21].nic.mac1609_4 SNIRLostPackets 2894
scalar RSUExampleScenario.node[21].nic.mac1609_4 RXTXLostPackets 172
scalar RSUExampleScenario.node[21].nic.mac1609_4 TotalLostPackets 3066
scalar RSUExampleScenario.node[21].nic.mac1609_4 DroppedPacketsInMac 0
scalar RSUExampleScenario.node[21].nic.mac1609_4 TooLittleTime 0
scalar RSUExampleScenario.node[21].nic.mac1609_4 TimesIntoBackoff 1053
scalar RSUExampleScenario.node[21].nic.mac1609_4 SlotsBackoff 1588
scalar RSUExampleScenario.node[21].nic.mac1609_4 NumInternalContention 0
scalar RSUExampleScenario.node[21].nic.mac1609_4 totalBusyTime 6.78441
scalar RSUExampleScenario.node[21].nic.mac1609_4 retriesExceeded:count 0
attr source org_car2x_veins_modules_mac_sigRetriesExceeded
scalar RSUExampleScenario.node[21].nic.mac1609_4 sentAcks:count 0
attr source org_car2x_veins_modules_mac_sigSentAck
scalar RSUExampleScenario.node[21].nic.mac1609_4 sentPackets:count 1018
attr source org_car2x_veins_modules_mac_sigSentPacket
scalar RSUExampleScenario.node[21].nic.mac1609_4 collisions:count 0
attr source org_car2x_veins_modules_mac_sigCollision
scalar RSUExampleScenario.node[21].nic.mac1609_4 channelBusy:timeavg 0.066710029498596
attr source org_car2x_veins_modules_mac_sigChannelBusy
scalar RSUExampleScenario.node[21].veinsmobility startTime 18.3
scalar RSUExampleScenario.node[21].veinsmobility totalTime 101.7
scalar RSUExampleScenario.node[21].veinsmobility stopTime 120
scalar RSUExampleScenario.node[21].veinsmobility minSpeed 0.021481952202934
scalar RSUExampleScenario.node[21].veinsmobility maxSpeed 7.2419899120817
scalar RSUExampleScenario.node[21].veinsmobility totalDistance 590.02949356723
scalar RSUExampleScenario.node[21].veinsmobility totalCO2Emission 193.91221641713
scalar RSUExampleScenario.node[22].appl generatedWSMs 1
scalar RSUExampleScenario.node[22].appl receivedWSMs 107
scalar RSUExampleScenario.node[22].appl generatedBSMs 999
scalar RSUExampleScenario.node[22].appl receivedBSMs 62639
scalar RSUExampleScenario.node[22].appl generatedWSAs 0
scalar RSUExampleScenario.node[22].appl receivedWSAs 0
scalar RSUExampleScenario.node[22].nic.phy80211p busyTime 0.06719887887895
scalar RSUExampleScenario.node[22].nic.mac1609_4 ReceivedUnicastPackets 0
scalar RSUExampleScenario.node[22].nic.mac1609_4 ReceivedBroadcasts 62746
scalar RSUExampleScenario.node[22].nic.mac1609_4 SentPackets 1000
scalar RSUExampleScenario.node[22].nic.mac1609_4 SentAcknowledgements 0
scalar RSUExampleScenario.node[22].nic.mac1609_4 RetriesExceeded 0
scalar RSUExampleScenario.node[22].nic.mac1609_4 SNIRLostPackets 1672
scalar RSUExampleScenario.node[22].nic.mac1609_4 RXTXLostPackets 0
scalar RSUExampleScenario.node[22].nic.mac1609_4 TotalLostPackets 1672
scalar RSUExampleScenario.node[22].nic.mac1609_4 DroppedPacketsInMac 0
scalar RSUExampleScenario.node[22].nic.mac1609_4 TooLittleTime 0
scalar RSUExampleScenario.node[22].nic.mac1609_4 TimesIntoBackoff 1367
scalar RSUExampleScenario.node[22].nic.mac1609_4 SlotsBackoff 2045
scalar RSUExampleScenario.node[22].nic.mac1609_4 NumInternalContention 0
scalar RSUExampleScenario.node[22].nic.mac1609_4 totalBusyTime 6.743208
scalar RSUExampleScenario.node[22].nic.mac1609_4 retriesExceeded:count 0
attr source org_car2x_veins_modules_mac_sigRetriesExceeded
scalar RSUExampleScenario.node[22].nic.mac1609_4 sentAcks:count 0
attr source org_car2x_veins_modules_mac_sigSentAck
scalar RSUExampleScenario.node[22].nic.mac1609_4 sentPackets:count 1000
attr source org_car2x_veins_modules_mac_sigSentPacket
scalar RSUExampleScenario.node[22].nic.mac1609_4 collisions:count 0
attr source org_car2x_veins_modules_mac_sigCollision
scalar RSUExampleScenario.node[22].nic.mac1609_4 channelBusy:timeavg 0.06749957957965
attr source org_car2x_veins_modules_mac_sigChannelBusy
scalar RSUExampleScenario.node[22].veinsmobility startTime 20.1
scalar RSUExampleScenario.node[22].veinsmobility totalTime 99.9
scalar RSUExampleScenario.node[22].veinsmobility stopTime 120
scalar RSUExampleScenario.node[22].veinsmobility minSpeed 0
scalar RSUExampleScenario.node[22].veinsmobility maxSpeed 11.65321649857
scalar RSUExampleScenario.node[22].veinsmobility totalDistance 501.24090181556
scalar RSUExampleScenario.node[22].veinsmobility totalCO2Emission 185.73542619774
scalar RSUExampleScenario.node[23].appl generatedWSMs 1
scalar RSUExampleScenario.node[23].appl receivedWSMs 107
scalar RSUExampleScenario.node[23].appl generatedBSMs 996
scalar RSUExampleScenario.node[23].appl receivedBSMs 61339
scalar RSUExampleScenario.node[23].appl generatedWSAs 0
scalar RSUExampleScenario.node[23].appl receivedWSAs 0
scalar RSUExampleScenario.node[23].nic.phy80211p busyTime 0.067332369477983
scalar RSUExampleScenario.node[23].nic.mac1609_4 ReceivedUnicastPackets 0
scalar RSUExampleScenario.node[23].nic.mac1609_4 ReceivedBroadcasts 61446
scalar RSUExampleScenario.node[23].nic.mac1609_4 SentPackets 997
scalar RSUExampleScenario.node[23].nic.mac1609_4 SentAcknowledgements 0
scalar RSUExampleScenario.node[23].nic.mac1609_4 RetriesExceeded 0
scalar RSUExampleScenario.node[23].nic.mac1609_4 SNIRLostPackets 2906
scalar RSUExampleScenario.node[23].nic.mac1609_4 RXTXLostPackets 0
scalar RSUExampleScenario.node[23].nic.mac1609_4 TotalLostPackets 2906
scalar RSUExampleScenario.node[23].nic.mac1609_4 DroppedPacketsInMac 0
scalar RSUExampleScenario.node[23].nic.mac1609_4 TooLittleTime 0
scalar RSUExampleScenario.node[23].nic.mac1609_4 TimesIntoBackoff 997
scalar RSUExampleScenario.node[23].nic.mac1609_4 SlotsBackoff 1507
scalar RSUExampleScenario.node[23].nic.mac1609_4 NumInternalContention 0
scalar RSUExampleScenario.node[23].nic.mac1609_4 totalBusyTime 6.736029
scalar RSUExampleScenario.node[23].nic.mac1609_4 retriesExceeded:count 0
attr source org_car2x_veins_modules_mac_sigRetriesExceeded
scalar RSUExampleScenario.node[23].nic.mac1609_4 sentAcks:count 0
attr source org_car2x_veins_modules_mac_sigSentAck
scalar RSUExampleScenario.node[23].nic.mac1609_4 sentPackets:count 997
attr source org_car2x_veins_modules_mac_sigSentPacket
scalar RSUExampleScenario.node[23].nic.mac1609_4 collisions:count 0
attr source org_car2x_veins_modules_mac_sigCollision
scalar RSUExampleScenario.node[23].nic.mac1609_4 channelBusy:timeavg 0.067630813253083
attr source org_car2x_veins_modules_mac_sigChannelBusy
scalar RSUExampleScenario.node[23].veinsmobility startTime 20.4
scalar RSUExampleScenario.node[23].veinsmobility totalTime 99.6
scalar RSUExampleScenario.node[23].veinsmobility stopTime 120
scalar RSUExampleScenario.node[23].veinsmobility minSpeed 0.038635011097931
scalar RSUExampleScenario.node[23].veinsmobility maxSpeed 7.386377213103
scalar RSUExampleScenario.node[23].veinsmobility totalDistance 575.01120469075
scalar RSUExampleScenario.node[23].veinsmobility totalCO2Emission 193.28547881758
scalar RSUExampleScenario.node[25].appl generatedWSMs 1
scalar RSUExampleScenario.node[25].appl receivedWSMs 107
scalar RSUExampleScenario.node[25].appl generatedBSMs 976
scalar RSUExampleScenario.node[25].appl receivedBSMs 61022
scalar RSUExampleScenario.node[25].appl generatedWSAs 0
scalar RSUExampleScenario.node[25].appl receivedWSAs 0
scalar RSUExampleScenario.node[25].nic.phy80211p busyTime 0.068218770491875
scalar RSUExampleScenario.node[25].nic.mac1609_4 ReceivedUnicastPackets 0
scalar RSUExampleScenario.node[25].nic.mac1609_4 ReceivedBroadcasts 61129
scalar RSUExampleScenario.node[25].nic.mac1609_4 SentPackets 977
scalar RSUExampleScenario.node[25].nic.mac1609_4 SentAcknowledgements 0
scalar RSUExampleScenario.node[25].nic.mac1609_4 RetriesExceeded 0
scalar RSUExampleScenario.node[25].nic.mac1609_4 SNIRLostPackets 2760
scalar RSUExampleScenario.node[25].nic.mac1609_4 RXTXLostPackets 0
scalar RSUExampleScenario.node[25].nic.mac1609_4 TotalLostPackets 2760
scalar RSUExampleScenario.node[25].nic.mac1609_4 DroppedPacketsInMac 0
scalar RSUExampleScenario.node[25].nic.mac1609_4 TooLittleTime 0
scalar RSUExampleScenario.node[25].nic.mac1609_4 TimesIntoBackoff 977
scalar RSUExampleScenario.node[25].nic.mac1609_4 SlotsBackoff 1513
scalar RSUExampleScenario.node[25].nic.mac1609_4 NumInternalContention 0
scalar RSUExampleScenario.node[25].nic.mac1609_4 totalBusyTime 6.685777
scalar RSUExampleScenario.node[25].nic.mac1609_4 retriesExceeded:count 0
attr source org_car2x_veins_modules_mac_sigRetriesExceeded
scalar RSUExampleScenario.node[25].nic.mac1609_4 sentAcks:count 0
attr source org_car2x_veins_modules_mac_sigSentAck
scalar RSUExampleScenario.node[25].nic.mac1609_4 sentPackets:count 977
attr source org_car2x_veins_modules_mac_sigSentPacket
scalar RSUExampleScenario.node[25].nic.mac1609_4 collisions:count 0
attr source org_car2x_veins_modules_mac_sigCollision
scalar RSUExampleScenario.node[25].nic.mac1609_4 channelBusy:timeavg 0.068501813524661
attr source org_car2x_veins_modules_mac_sigChannelBusy
scalar RSUExampleScenario.node[25].veinsmobility startTime 22.4
scalar RSUExampleScenario.node[25].veinsmobility totalTime 97.6
scalar RSUExampleScenario.node[25].veinsmobility stopTime 120
scalar RSUExampleScenario.node[25].veinsmobility minSpeed 0.066680934932375
scalar RSUExampleScenario.node[25].veinsmobility maxSpeed 7.5920234281674
scalar RSUExampleScenario.node[25].veinsmobility totalDistance 560.01652929399
scalar RSUExampleScenario.node[25].veinsmobility totalCO2Emission 192.10737367308
scalar RSUExampleScenario.node[26].appl generatedWSMs 1
scalar RSUExampleScenario.node[26].appl receivedWSMs 107
scalar RSUExampleScenario.node[26].appl generatedBSMs 959
scalar RSUExampleScenario.node[26].appl receivedBSMs 62337
scalar RSUExampleScenario.node[26].appl generatedWSAs 0
scalar RSUExampleScenario.node[26].appl receivedWSAs 0
scalar RSUExampleScenario.node[26].nic.phy80211p busyTime 0.0689671741398
scalar RSUExampleScenario.node[26].nic.mac1609_4 ReceivedUnicastPackets 0
scalar RSUExampleScenario.node[26].nic.mac1609_4 ReceivedBroadcasts 62444
scalar RSUExampleScenario.node[26].nic.mac1609_4 SentPackets 960
scalar RSUExampleScenario.node[26].nic.mac1609_4 SentAcknowledgements 0
scalar RSUExampleScenario.node[26].nic.mac1609_4 RetriesExceeded 0
scalar RSUExampleScenario.node[26].nic.mac1609_4 SNIRLostPackets 1020
scalar RSUExampleScenario.node[26].nic.mac1609_4 RXTXLostPackets 0
scalar RSUExampleScenario.node[26].nic.mac1609_4 TotalLostPackets 1020
scalar RSUExampleScenario.node[26].nic.mac1609_4 DroppedPacketsInMac 0
scalar RSUExampleScenario.node[26].nic.mac1609_4 TooLittleTime 0
scalar RSUExampleScenario.node[26].nic.mac1609_4 TimesIntoBackoff 960
scalar RSUExampleScenario.node[26].nic.mac1609_4 SlotsBackoff 1456
scalar RSUExampleScenario.node[26].nic.mac1609_4 NumInternalContention 0
scalar RSUExampleScenario.node[26].nic.mac1609_4 totalBusyTime 6.639792
scalar RSUExampleScenario.node[26].nic.mac1609_4 retriesExceeded:count 0
attr source org_car2x_veins_modules_mac_sigRetriesExceeded
scalar RSUExampleScenario.node[26].nic.mac1609_4 sentAcks:count 0
attr source org_car2x_veins_modules_mac_sigSentAck
scalar RSUExampleScenario.node[26].nic.mac1609_4 sentPackets:count 960
attr source org_car2x_veins_modules_mac_sigSentPacket
scalar RSUExampleScenario.node[26].nic.mac1609_4 collisions:count 0
attr source org_car2x_veins_modules_mac_sigCollision
scalar RSUExampleScenario.node[26].nic.mac1609_4 channelBusy:timeavg 0.069236621480779
attr source org_car2x_veins_modules_mac_sigChannelBusy
scalar RSUExampleScenario.node[26].veinsmobility startTime 24.1
scalar RSUExampleScenario.node[26].veinsmobility totalTime 95.9
scalar RSUExampleScenario.node[26].veinsmobility stopTime 120
scalar RSUExampleScenario.node[26].veinsmobility minSpeed 0
scalar RSUExampleScenario.node[26].veinsmobility maxSpeed 8.808604303845
scalar RSUExampleScenario.node[26].veinsmobility totalDistance 213.89597063422
scalar RSUExampleScenario.node[26].veinsmobility totalCO2Emission 127.22245456875
scalar RSUExampleScenario.node[27].appl generatedWSMs 1
scalar RSUExampleScenario.node[27].appl receivedWSMs 107
scalar RSUExampleScenario.node[27].appl generatedBSMs 955
scalar RSUExampleScenario.node[27].appl receivedBSMs 60586
scalar RSUExampleScenario.node[27].appl generatedWSAs 0
scalar RSUExampleScenario.node[27].appl receivedWSAs 0
scalar RSUExampleScenario.node[27].nic.phy80211p busyTime 0.069142785340385
scalar RSUExampleScenario.node[27].nic.mac1609_4 ReceivedUnicastPackets 0
scalar RSUExampleScenario.node[27].nic.mac1609_4 ReceivedBroadcasts 60693
scalar RSUExampleScenario.node[27].nic.mac1609_4 SentPackets 956
scalar RSUExampleScenario.node[27].nic.mac1609_4 SentAcknowledgements 0
scalar RSUExampleScenario.node[27].nic.mac1609_4 RetriesExceeded 0
scalar RSUExampleScenario.node[27].nic.mac1609_4 SNIRLostPackets 2667
scalar RSUExampleScenario.node[27].nic.mac1609_4 RXTXLostPackets 0
scalar RSUExampleScenario.node[27].nic.mac1609_4 TotalLostPackets 2667
scalar RSUExampleScenario.node[27].nic.mac1609_4 DroppedPacketsInMac 0
scalar RSUExampleScenario.node[27].nic.mac1609_4 TooLittleTime 0
scalar RSUExampleScenario.node[27].nic.mac1609_4 TimesIntoBackoff 956
scalar RSUExampleScenario.node[27].nic.mac1609_4 SlotsBackoff 1451
scalar RSUExampleScenario.node[27].nic.mac1609_4 NumInternalContention 0
scalar RSUExampleScenario.node[27].nic.mac1609_4 totalBusyTime 6.628556
scalar RSUExampleScenario.node[27].nic.mac1609_4 retriesExceeded:count 0
attr source org_car2x_veins_modules_mac_sigRetriesExceeded
scalar RSUExampleScenario.node[27].nic.mac1609_4 sentAcks:count 0
attr source org_car2x_veins_modules_mac_sigSentAck
scalar RSUExampleScenario.node[27].nic.mac1609_4 sentPackets:count 956
attr source org_car2x_veins_modules_mac_sigSentPacket
scalar RSUExampleScenario.node[27].nic.mac1609_4 collisions:count 0
attr source org_car2x_veins_modules_mac_sigCollision
scalar RSUExampleScenario.node[27].nic.mac1609_4 channelBusy:timeavg 0.069408963350856
attr source org_car2x_veins_modules_mac_sigChannelBusy
scalar RSUExampleScenario.node[27].veinsmobility startTime 24.5
scalar RSUExampleScenario.node[27].veinsmobility totalTime 95.5
scalar RSUExampleScenario.node[27].veinsmobility stopTime 120
scalar RSUExampleScenario.node[27].veinsmobility minSpeed 0.10556843015586
scalar RSUExampleScenario.node[27].veinsmobility maxSpeed 7.6399460935208
scalar RSUExampleScenario.node[27].veinsmobility totalDistance 545.03940595792
scalar RSUExampleScenario.node[27].veinsmobility totalCO2Emission 188.48374204037
scalar RSUExampleScenario.node[29].appl generatedWSMs 1
scalar RSUExampleScenario.node[29].appl receivedWSMs 107
scalar RSUExampleScenario.node[29].appl generatedBSMs 935
scalar RSUExampleScenario.node[29].appl receivedBSMs 60162
scalar RSUExampleScenario.node[29].appl generatedWSAs 0
scalar RSUExampleScenario.node[29].appl receivedWSAs 0
scalar RSUExampleScenario.node[29].nic.phy80211p busyTime 0.07001668449205
scalar RSUExampleScenario.node[29].nic.mac1609_4 ReceivedUnicastPackets 0
scalar RSUExampleScenario.node[29].nic.mac1609_4 ReceivedBroadcasts 60269
scalar RSUExampleScenario.node[29].nic.mac1609_4 SentPackets 936
scalar RSUExampleScenario.node[29].nic.mac1609_4 SentAcknowledgements 0
scalar RSUExampleScenario.node[29].nic.mac1609_4 RetriesExceeded 0
scalar RSUExampleScenario.node[29].nic.mac1609_4 SNIRLostPackets 2547
scalar RSUExampleScenario.node[29].nic.mac1609_4 RXTXLostPackets 0
scalar RSUExampleScenario.node[29].nic.mac1609_4 TotalLostPackets 2547
scalar RSUExampleScenario.node[29].nic.mac1609_4 DroppedPacketsInMac 0
scalar RSUExampleScenario.node[29].nic.mac1609_4 TooLittleTime 0
scalar RSUExampleScenario.node[29].nic.mac1609_4 TimesIntoBackoff 939
scalar RSUExampleScenario.node[29].nic.mac1609_4 SlotsBackoff 1412
scalar RSUExampleScenario.node[29].nic.mac1609_4 NumInternalContention 0
scalar RSUExampleScenario.node[29].nic.mac1609_4 totalBusyTime 6.56988
scalar RSUExampleScenario.node[29].nic.mac1609_4 retriesExceeded:count 0
attr source org_car2x_veins_modules_mac_sigRetriesExceeded
scalar RSUExampleScenario.node[29].nic.mac1609_4 sentAcks:count 0
attr source org_car2x_veins_modules_mac_sigSentAck
scalar RSUExampleScenario.node[29].nic.mac1609_4 sentPackets:count 936
attr source org_car2x_veins_modules_mac_sigSentPacket
scalar RSUExampleScenario.node[29].nic.mac1609_4 collisions:count 0
attr source org_car2x_veins_modules_mac_sigCollision
scalar RSUExampleScenario.node[29].nic.mac1609_4 channelBusy:timeavg 0.070266096256754
attr source org_car2x_veins_modules_mac_sigChannelBusy
scalar RSUExampleScenario.node[29].veinsmobility startTime 26.5
scalar RSUExampleScenario.node[29].veinsmobility totalTime 93.5
scalar RSUExampleScenario.node[29].veinsmobility stopTime 120
scalar RSUExampleScenario.node[29].veinsmobility minSpeed 0.15880387276117
scalar RSUExampleScenario.node[29].veinsmobility maxSpeed 7.4855034079784
scalar RSUExampleScenario.node[29].veinsmobility totalDistance 530.01552105536
[...]
scalar RSUExampleScenario.node[101].nic.mac1609_4 ReceivedBroadcasts 8173
scalar RSUExampleScenario.node[101].nic.mac1609_4 SentPackets 100
scalar RSUExampleScenario.node[101].nic.mac1609_4 SentAcknowledgements 0
scalar RSUExampleScenario.node[101].nic.mac1609_4 RetriesExceeded 0
scalar RSUExampleScenario.node[101].nic.mac1609_4 SNIRLostPackets 913
scalar RSUExampleScenario.node[101].nic.mac1609_4 RXTXLostPackets 28
scalar RSUExampleScenario.node[101].nic.mac1609_4 TotalLostPackets 941
scalar RSUExampleScenario.node[101].nic.mac1609_4 DroppedPacketsInMac 0
scalar RSUExampleScenario.node[101].nic.mac1609_4 TooLittleTime 0
scalar RSUExampleScenario.node[101].nic.mac1609_4 TimesIntoBackoff 126
scalar RSUExampleScenario.node[101].nic.mac1609_4 SlotsBackoff 176
scalar RSUExampleScenario.node[101].nic.mac1609_4 NumInternalContention 0
scalar RSUExampleScenario.node[101].nic.mac1609_4 totalBusyTime 0.937876
scalar RSUExampleScenario.node[101].nic.mac1609_4 retriesExceeded:count 0
attr source org_car2x_veins_modules_mac_sigRetriesExceeded
scalar RSUExampleScenario.node[101].nic.mac1609_4 sentAcks:count 0
attr source org_car2x_veins_modules_mac_sigSentAck
scalar RSUExampleScenario.node[101].nic.mac1609_4 sentPackets:count 100
attr source org_car2x_veins_modules_mac_sigSentPacket
scalar RSUExampleScenario.node[101].nic.mac1609_4 collisions:count 0
attr source org_car2x_veins_modules_mac_sigCollision
scalar RSUExampleScenario.node[101].nic.mac1609_4 channelBusy:timeavg 0.094734949494945
attr source org_car2x_veins_modules_mac_sigChannelBusy
scalar RSUExampleScenario.node[101].veinsmobility startTime 110.1
scalar RSUExampleScenario.node[101].veinsmobility totalTime 9.9
scalar RSUExampleScenario.node[101].veinsmobility stopTime 120
scalar RSUExampleScenario.node[101].veinsmobility minSpeed 8.4388988955982
scalar RSUExampleScenario.node[101].veinsmobility maxSpeed 10.261251726148
scalar RSUExampleScenario.node[101].veinsmobility totalDistance 99.702891921973
scalar RSUExampleScenario.node[101].veinsmobility totalCO2Emission 19.849502242284
scalar RSUExampleScenario.node[102].appl generatedWSMs 1
scalar RSUExampleScenario.node[102].appl receivedWSMs 8
scalar RSUExampleScenario.node[102].appl generatedBSMs 97
scalar RSUExampleScenario.node[102].appl receivedBSMs 7805
scalar RSUExampleScenario.node[102].appl generatedWSAs 0
scalar RSUExampleScenario.node[102].appl receivedWSAs 0
scalar RSUExampleScenario.node[102].nic.phy80211p busyTime 0.09587134020618
scalar RSUExampleScenario.node[102].nic.mac1609_4 ReceivedUnicastPackets 0
scalar RSUExampleScenario.node[102].nic.mac1609_4 ReceivedBroadcasts 7813
scalar RSUExampleScenario.node[102].nic.mac1609_4 SentPackets 98
scalar RSUExampleScenario.node[102].nic.mac1609_4 SentAcknowledgements 0
scalar RSUExampleScenario.node[102].nic.mac1609_4 RetriesExceeded 0
scalar RSUExampleScenario.node[102].nic.mac1609_4 SNIRLostPackets 1119
scalar RSUExampleScenario.node[102].nic.mac1609_4 RXTXLostPackets 0
scalar RSUExampleScenario.node[102].nic.mac1609_4 TotalLostPackets 1119
scalar RSUExampleScenario.node[102].nic.mac1609_4 DroppedPacketsInMac 0
scalar RSUExampleScenario.node[102].nic.mac1609_4 TooLittleTime 0
scalar RSUExampleScenario.node[102].nic.mac1609_4 TimesIntoBackoff 98
scalar RSUExampleScenario.node[102].nic.mac1609_4 SlotsBackoff 147
scalar RSUExampleScenario.node[102].nic.mac1609_4 NumInternalContention 0
scalar RSUExampleScenario.node[102].nic.mac1609_4 totalBusyTime 0.919154
scalar RSUExampleScenario.node[102].nic.mac1609_4 retriesExceeded:count 0
attr source org_car2x_veins_modules_mac_sigRetriesExceeded
scalar RSUExampleScenario.node[102].nic.mac1609_4 sentAcks:count 0
attr source org_car2x_veins_modules_mac_sigSentAck
scalar RSUExampleScenario.node[102].nic.mac1609_4 sentPackets:count 98
attr source org_car2x_veins_modules_mac_sigSentPacket
scalar RSUExampleScenario.node[102].nic.mac1609_4 collisions:count 0
attr source org_car2x_veins_modules_mac_sigCollision
scalar RSUExampleScenario.node[102].nic.mac1609_4 channelBusy:timeavg 0.094758144329892
attr source org_car2x_veins_modules_mac_sigChannelBusy
scalar RSUExampleScenario.node[102].veinsmobility startTime 110.3
scalar RSUExampleScenario.node[102].veinsmobility totalTime 9.7
scalar RSUExampleScenario.node[102].veinsmobility stopTime 120
scalar RSUExampleScenario.node[102].veinsmobility minSpeed 1.3901897958068
scalar RSUExampleScenario.node[102].veinsmobility maxSpeed 3.395843756083
scalar RSUExampleScenario.node[102].veinsmobility totalDistance 27.680490651722
scalar RSUExampleScenario.node[102].veinsmobility totalCO2Emission 14.07576121532
scalar RSUExampleScenario.node[103].appl generatedWSMs 1
scalar RSUExampleScenario.node[103].appl receivedWSMs 6
scalar RSUExampleScenario.node[103].appl generatedBSMs 79
scalar RSUExampleScenario.node[103].appl receivedBSMs 6472
scalar RSUExampleScenario.node[103].appl generatedWSAs 0
scalar RSUExampleScenario.node[103].appl receivedWSAs 0
scalar RSUExampleScenario.node[103].nic.phy80211p busyTime 0.096066835443033
scalar RSUExampleScenario.node[103].nic.mac1609_4 ReceivedUnicastPackets 0
scalar RSUExampleScenario.node[103].nic.mac1609_4 ReceivedBroadcasts 6478
scalar RSUExampleScenario.node[103].nic.mac1609_4 SentPackets 80
scalar RSUExampleScenario.node[103].nic.mac1609_4 SentAcknowledgements 0
scalar RSUExampleScenario.node[103].nic.mac1609_4 RetriesExceeded 0
scalar RSUExampleScenario.node[103].nic.mac1609_4 SNIRLostPackets 812
scalar RSUExampleScenario.node[103].nic.mac1609_4 RXTXLostPackets 0
scalar RSUExampleScenario.node[103].nic.mac1609_4 TotalLostPackets 812
scalar RSUExampleScenario.node[103].nic.mac1609_4 DroppedPacketsInMac 0
scalar RSUExampleScenario.node[103].nic.mac1609_4 TooLittleTime 0
scalar RSUExampleScenario.node[103].nic.mac1609_4 TimesIntoBackoff 80
scalar RSUExampleScenario.node[103].nic.mac1609_4 SlotsBackoff 140
scalar RSUExampleScenario.node[103].nic.mac1609_4 NumInternalContention 0
scalar RSUExampleScenario.node[103].nic.mac1609_4 totalBusyTime 0.750192
scalar RSUExampleScenario.node[103].nic.mac1609_4 retriesExceeded:count 0
attr source org_car2x_veins_modules_mac_sigRetriesExceeded
scalar RSUExampleScenario.node[103].nic.mac1609_4 sentAcks:count 0
attr source org_car2x_veins_modules_mac_sigSentAck
scalar RSUExampleScenario.node[103].nic.mac1609_4 sentPackets:count 80
attr source org_car2x_veins_modules_mac_sigSentPacket
scalar RSUExampleScenario.node[103].nic.mac1609_4 collisions:count 0
attr source org_car2x_veins_modules_mac_sigCollision
scalar RSUExampleScenario.node[103].nic.mac1609_4 channelBusy:timeavg 0.094961012658223
attr source org_car2x_veins_modules_mac_sigChannelBusy
scalar RSUExampleScenario.node[103].veinsmobility startTime 112.1
scalar RSUExampleScenario.node[103].veinsmobility totalTime 7.9
scalar RSUExampleScenario.node[103].veinsmobility stopTime 120
scalar RSUExampleScenario.node[103].veinsmobility minSpeed 4.6762297251639
scalar RSUExampleScenario.node[103].veinsmobility maxSpeed 9.5838324713452
scalar RSUExampleScenario.node[103].veinsmobility totalDistance 69.892830525266
scalar RSUExampleScenario.node[103].veinsmobility totalCO2Emission 15.623875905758
scalar RSUExampleScenario.node[104].appl generatedWSMs 1
scalar RSUExampleScenario.node[104].appl receivedWSMs 4
scalar RSUExampleScenario.node[104].appl generatedBSMs 67
scalar RSUExampleScenario.node[104].appl receivedBSMs 5399
scalar RSUExampleScenario.node[104].appl generatedWSAs 0
scalar RSUExampleScenario.node[104].appl receivedWSAs 0
scalar RSUExampleScenario.node[104].nic.phy80211p busyTime 0.096237611940294
scalar RSUExampleScenario.node[104].nic.mac1609_4 ReceivedUnicastPackets 0
scalar RSUExampleScenario.node[104].nic.mac1609_4 ReceivedBroadcasts 5403
scalar RSUExampleScenario.node[104].nic.mac1609_4 SentPackets 68
scalar RSUExampleScenario.node[104].nic.mac1609_4 SentAcknowledgements 0
scalar RSUExampleScenario.node[104].nic.mac1609_4 RetriesExceeded 0
scalar RSUExampleScenario.node[104].nic.mac1609_4 SNIRLostPackets 792
scalar RSUExampleScenario.node[104].nic.mac1609_4 RXTXLostPackets 0
scalar RSUExampleScenario.node[104].nic.mac1609_4 TotalLostPackets 792
scalar RSUExampleScenario.node[104].nic.mac1609_4 DroppedPacketsInMac 0
scalar RSUExampleScenario.node[104].nic.mac1609_4 TooLittleTime 0
scalar RSUExampleScenario.node[104].nic.mac1609_4 TimesIntoBackoff 70
scalar RSUExampleScenario.node[104].nic.mac1609_4 SlotsBackoff 107
scalar RSUExampleScenario.node[104].nic.mac1609_4 NumInternalContention 0
scalar RSUExampleScenario.node[104].nic.mac1609_4 totalBusyTime 0.637604
scalar RSUExampleScenario.node[104].nic.mac1609_4 retriesExceeded:count 0
attr source org_car2x_veins_modules_mac_sigRetriesExceeded
scalar RSUExampleScenario.node[104].nic.mac1609_4 sentAcks:count 0
attr source org_car2x_veins_modules_mac_sigSentAck
scalar RSUExampleScenario.node[104].nic.mac1609_4 sentPackets:count 68
attr source org_car2x_veins_modules_mac_sigSentPacket
scalar RSUExampleScenario.node[104].nic.mac1609_4 collisions:count 0
attr source org_car2x_veins_modules_mac_sigCollision
scalar RSUExampleScenario.node[104].nic.mac1609_4 channelBusy:timeavg 0.095164776119399
attr source org_car2x_veins_modules_mac_sigChannelBusy
scalar RSUExampleScenario.node[104].veinsmobility startTime 113.3
scalar RSUExampleScenario.node[104].veinsmobility totalTime 6.7
scalar RSUExampleScenario.node[104].veinsmobility stopTime 120
scalar RSUExampleScenario.node[104].veinsmobility minSpeed 1.269444672834
scalar RSUExampleScenario.node[104].veinsmobility maxSpeed 3.0208847552906
scalar RSUExampleScenario.node[104].veinsmobility totalDistance 17.351973982348
scalar RSUExampleScenario.node[104].veinsmobility totalCO2Emission 9.6014587871843
scalar RSUExampleScenario.node[105].appl generatedWSMs 1
scalar RSUExampleScenario.node[105].appl receivedWSMs 4
scalar RSUExampleScenario.node[105].appl generatedBSMs 59
scalar RSUExampleScenario.node[105].appl receivedBSMs 4824
scalar RSUExampleScenario.node[105].appl generatedWSAs 0
scalar RSUExampleScenario.node[105].appl receivedWSAs 0
scalar RSUExampleScenario.node[105].nic.phy80211p busyTime 0.096366101694911
scalar RSUExampleScenario.node[105].nic.mac1609_4 ReceivedUnicastPackets 0
scalar RSUExampleScenario.node[105].nic.mac1609_4 ReceivedBroadcasts 4828
scalar RSUExampleScenario.node[105].nic.mac1609_4 SentPackets 60
scalar RSUExampleScenario.node[105].nic.mac1609_4 SentAcknowledgements 0
scalar RSUExampleScenario.node[105].nic.mac1609_4 RetriesExceeded 0
scalar RSUExampleScenario.node[105].nic.mac1609_4 SNIRLostPackets 634
scalar RSUExampleScenario.node[105].nic.mac1609_4 RXTXLostPackets 0
scalar RSUExampleScenario.node[105].nic.mac1609_4 TotalLostPackets 634
scalar RSUExampleScenario.node[105].nic.mac1609_4 DroppedPacketsInMac 0
scalar RSUExampleScenario.node[105].nic.mac1609_4 TooLittleTime 0
scalar RSUExampleScenario.node[105].nic.mac1609_4 TimesIntoBackoff 60
scalar RSUExampleScenario.node[105].nic.mac1609_4 SlotsBackoff 90
scalar RSUExampleScenario.node[105].nic.mac1609_4 NumInternalContention 0
scalar RSUExampleScenario.node[105].nic.mac1609_4 totalBusyTime 0.5623
scalar RSUExampleScenario.node[105].nic.mac1609_4 retriesExceeded:count 0
attr source org_car2x_veins_modules_mac_sigRetriesExceeded
scalar RSUExampleScenario.node[105].nic.mac1609_4 sentAcks:count 0
attr source org_car2x_veins_modules_mac_sigSentAck
scalar RSUExampleScenario.node[105].nic.mac1609_4 sentPackets:count 60
attr source org_car2x_veins_modules_mac_sigSentPacket
scalar RSUExampleScenario.node[105].nic.mac1609_4 collisions:count 0
attr source org_car2x_veins_modules_mac_sigCollision
scalar RSUExampleScenario.node[105].nic.mac1609_4 channelBusy:timeavg 0.095305084745759
attr source org_car2x_veins_modules_mac_sigChannelBusy
scalar RSUExampleScenario.node[105].veinsmobility startTime 114.1
scalar RSUExampleScenario.node[105].veinsmobility totalTime 5.9
scalar RSUExampleScenario.node[105].veinsmobility stopTime 120
scalar RSUExampleScenario.node[105].veinsmobility minSpeed 6.8258956861271
scalar RSUExampleScenario.node[105].veinsmobility maxSpeed 8.7575296646879
scalar RSUExampleScenario.node[105].veinsmobility totalDistance 52.377588430605
scalar RSUExampleScenario.node[105].veinsmobility totalCO2Emission 10.508083084567
scalar RSUExampleScenario.node[106].appl generatedWSMs 1
scalar RSUExampleScenario.node[106].appl receivedWSMs 3
scalar RSUExampleScenario.node[106].appl generatedBSMs 39
scalar RSUExampleScenario.node[106].appl receivedBSMs 3184
scalar RSUExampleScenario.node[106].appl generatedWSAs 0
scalar RSUExampleScenario.node[106].appl receivedWSAs 0
scalar RSUExampleScenario.node[106].nic.phy80211p busyTime 0.096658461538458
scalar RSUExampleScenario.node[106].nic.mac1609_4 ReceivedUnicastPackets 0
scalar RSUExampleScenario.node[106].nic.mac1609_4 ReceivedBroadcasts 3187
scalar RSUExampleScenario.node[106].nic.mac1609_4 SentPackets 40
scalar RSUExampleScenario.node[106].nic.mac1609_4 SentAcknowledgements 0
scalar RSUExampleScenario.node[106].nic.mac1609_4 RetriesExceeded 0
scalar RSUExampleScenario.node[106].nic.mac1609_4 SNIRLostPackets 434
scalar RSUExampleScenario.node[106].nic.mac1609_4 RXTXLostPackets 0
scalar RSUExampleScenario.node[106].nic.mac1609_4 TotalLostPackets 434
scalar RSUExampleScenario.node[106].nic.mac1609_4 DroppedPacketsInMac 0
scalar RSUExampleScenario.node[106].nic.mac1609_4 TooLittleTime 0
scalar RSUExampleScenario.node[106].nic.mac1609_4 TimesIntoBackoff 40
scalar RSUExampleScenario.node[106].nic.mac1609_4 SlotsBackoff 59
scalar RSUExampleScenario.node[106].nic.mac1609_4 NumInternalContention 0
scalar RSUExampleScenario.node[106].nic.mac1609_4 totalBusyTime 0.373288
scalar RSUExampleScenario.node[106].nic.mac1609_4 retriesExceeded:count 0
attr source org_car2x_veins_modules_mac_sigRetriesExceeded
scalar RSUExampleScenario.node[106].nic.mac1609_4 sentAcks:count 0
attr source org_car2x_veins_modules_mac_sigSentAck
scalar RSUExampleScenario.node[106].nic.mac1609_4 sentPackets:count 40
attr source org_car2x_veins_modules_mac_sigSentPacket
scalar RSUExampleScenario.node[106].nic.mac1609_4 collisions:count 0
attr source org_car2x_veins_modules_mac_sigCollision
scalar RSUExampleScenario.node[106].nic.mac1609_4 channelBusy:timeavg 0.095714871794869
attr source org_car2x_veins_modules_mac_sigChannelBusy
scalar RSUExampleScenario.node[106].veinsmobility startTime 116.1
scalar RSUExampleScenario.node[106].veinsmobility totalTime 3.9
scalar RSUExampleScenario.node[106].veinsmobility stopTime 120
scalar RSUExampleScenario.node[106].veinsmobility minSpeed 10.517458199539
scalar RSUExampleScenario.node[106].veinsmobility maxSpeed 10.756324219269
scalar RSUExampleScenario.node[106].veinsmobility totalDistance 41.537504638735
scalar RSUExampleScenario.node[106].veinsmobility totalCO2Emission 9.6168593025932
scalar RSUExampleScenario.node[107].appl generatedWSMs 1
scalar RSUExampleScenario.node[107].appl receivedWSMs 3
scalar RSUExampleScenario.node[107].appl generatedBSMs 35
scalar RSUExampleScenario.node[107].appl receivedBSMs 2844
scalar RSUExampleScenario.node[107].appl generatedWSAs 0
scalar RSUExampleScenario.node[107].appl receivedWSAs 0
scalar RSUExampleScenario.node[107].nic.phy80211p busyTime 0.096651428571426
scalar RSUExampleScenario.node[107].nic.mac1609_4 ReceivedUnicastPackets 0
scalar RSUExampleScenario.node[107].nic.mac1609_4 ReceivedBroadcasts 2847
scalar RSUExampleScenario.node[107].nic.mac1609_4 SentPackets 36
scalar RSUExampleScenario.node[107].nic.mac1609_4 SentAcknowledgements 0
scalar RSUExampleScenario.node[107].nic.mac1609_4 RetriesExceeded 0
scalar RSUExampleScenario.node[107].nic.mac1609_4 SNIRLostPackets 402
scalar RSUExampleScenario.node[107].nic.mac1609_4 RXTXLostPackets 0
scalar RSUExampleScenario.node[107].nic.mac1609_4 TotalLostPackets 402
scalar RSUExampleScenario.node[107].nic.mac1609_4 DroppedPacketsInMac 0
scalar RSUExampleScenario.node[107].nic.mac1609_4 TooLittleTime 0
scalar RSUExampleScenario.node[107].nic.mac1609_4 TimesIntoBackoff 71
scalar RSUExampleScenario.node[107].nic.mac1609_4 SlotsBackoff 113
scalar RSUExampleScenario.node[107].nic.mac1609_4 NumInternalContention 0
scalar RSUExampleScenario.node[107].nic.mac1609_4 totalBusyTime 0.33522
scalar RSUExampleScenario.node[107].nic.mac1609_4 retriesExceeded:count 0
attr source org_car2x_veins_modules_mac_sigRetriesExceeded
scalar RSUExampleScenario.node[107].nic.mac1609_4 sentAcks:count 0
attr source org_car2x_veins_modules_mac_sigSentAck
scalar RSUExampleScenario.node[107].nic.mac1609_4 sentPackets:count 36
attr source org_car2x_veins_modules_mac_sigSentPacket
scalar RSUExampleScenario.node[107].nic.mac1609_4 collisions:count 0
attr source org_car2x_veins_modules_mac_sigCollision
scalar RSUExampleScenario.node[107].nic.mac1609_4 channelBusy:timeavg 0.09577714285714
attr source org_car2x_veins_modules_mac_sigChannelBusy
scalar RSUExampleScenario.node[107].veinsmobility startTime 116.5
scalar RSUExampleScenario.node[107].veinsmobility totalTime 3.5
scalar RSUExampleScenario.node[107].veinsmobility stopTime 120
scalar RSUExampleScenario.node[107].veinsmobility minSpeed 0.83492558411926
scalar RSUExampleScenario.node[107].veinsmobility maxSpeed 2.5905044415535
scalar RSUExampleScenario.node[107].veinsmobility totalDistance 7.2187961484722
scalar RSUExampleScenario.node[107].veinsmobility totalCO2Emission 5.0648642311116
scalar RSUExampleScenario.node[108].appl generatedWSMs 0
scalar RSUExampleScenario.node[108].appl receivedWSMs 2
scalar RSUExampleScenario.node[108].appl generatedBSMs 19
scalar RSUExampleScenario.node[108].appl receivedBSMs 1551
scalar RSUExampleScenario.node[108].appl generatedWSAs 0
scalar RSUExampleScenario.node[108].appl receivedWSAs 0
scalar RSUExampleScenario.node[108].nic.phy80211p busyTime 0.096526315789474
scalar RSUExampleScenario.node[108].nic.mac1609_4 ReceivedUnicastPackets 0
scalar RSUExampleScenario.node[108].nic.mac1609_4 ReceivedBroadcasts 1553
scalar RSUExampleScenario.node[108].nic.mac1609_4 SentPackets 19
scalar RSUExampleScenario.node[108].nic.mac1609_4 SentAcknowledgements 0
scalar RSUExampleScenario.node[108].nic.mac1609_4 RetriesExceeded 0
scalar RSUExampleScenario.node[108].nic.mac1609_4 SNIRLostPackets 208
scalar RSUExampleScenario.node[108].nic.mac1609_4 RXTXLostPackets 0
scalar RSUExampleScenario.node[108].nic.mac1609_4 TotalLostPackets 208
scalar RSUExampleScenario.node[108].nic.mac1609_4 DroppedPacketsInMac 0
scalar RSUExampleScenario.node[108].nic.mac1609_4 TooLittleTime 0
scalar RSUExampleScenario.node[108].nic.mac1609_4 TimesIntoBackoff 19
scalar RSUExampleScenario.node[108].nic.mac1609_4 SlotsBackoff 23
scalar RSUExampleScenario.node[108].nic.mac1609_4 NumInternalContention 0
scalar RSUExampleScenario.node[108].nic.mac1609_4 totalBusyTime 0.181859
scalar RSUExampleScenario.node[108].nic.mac1609_4 retriesExceeded:count 0
attr source org_car2x_veins_modules_mac_sigRetriesExceeded
scalar RSUExampleScenario.node[108].nic.mac1609_4 sentAcks:count 0
attr source org_car2x_veins_modules_mac_sigSentAck
scalar RSUExampleScenario.node[108].nic.mac1609_4 sentPackets:count 19
attr source org_car2x_veins_modules_mac_sigSentPacket
scalar RSUExampleScenario.node[108].nic.mac1609_4 collisions:count 0
attr source org_car2x_veins_modules_mac_sigCollision
scalar RSUExampleScenario.node[108].nic.mac1609_4 channelBusy:timeavg 0.095715263157895
attr source org_car2x_veins_modules_mac_sigChannelBusy
scalar RSUExampleScenario.node[108].veinsmobility startTime 118.1
scalar RSUExampleScenario.node[108].veinsmobility totalTime 1.9
scalar RSUExampleScenario.node[108].veinsmobility stopTime 120
scalar RSUExampleScenario.node[108].veinsmobility minSpeed 8.7720167379686
scalar RSUExampleScenario.node[108].veinsmobility maxSpeed 8.9981057158555
scalar RSUExampleScenario.node[108].veinsmobility totalDistance 19.322691381609
scalar RSUExampleScenario.node[108].veinsmobility totalCO2Emission 4.1990024180103

