version 2
run WithBeaconing-0-20251015-16:41:18-3972
attr configname WithBeaconing
attr datetime 20251015-16:41:18
attr experiment WithBeaconing
attr inifile omnetpp.ini
attr iterationvars ""
attr iterationvarsf ""
attr measurement ""
attr network RSUExampleScenario
attr processid 3972
attr repetition 0
attr replication #0
attr resultdir results
attr runnumber 0
attr seedset 210041226
param *.node[*].appl.sendBeacons true
param *.playgroundSizeX 1700m
param *.playgroundSizeY 1700m
param *.playgroundSizeZ 50m
param *.annotations.draw true
param *.manager.updateInterval 0.1s
param *.manager.host "\"localhost\""
param *.manager.port 9999
param *.manager.autoShutdown true
param *.manager.launchConfig "xmldoc(\"simulation_freeway.launchd.xml\")"
param *.connectionManager.sendDirect true
param *.connectionManager.maxInterfDist 2600m
param *.connectionManager.drawMaxIntfDist false
param *.**.nic.mac1609_4.useServiceChannel false
param *.**.nic.mac1609_4.txPower 20mW
param *.**.nic.mac1609_4.bitrate 6Mbps
param *.**.nic.phy80211p.minPowerLevel -110dBm
param *.**.nic.phy80211p.useNoiseFloor true
param *.**.nic.phy80211p.noiseFloor -98dBm
param *.**.nic.phy80211p.decider "xmldoc(\"config.xml\")"
param *.**.nic.phy80211p.analogueModels "xmldoc(\"config.xml\")"
param *.**.nic.phy80211p.usePropagationDelay true
param *.**.nic.phy80211p.antenna "xmldoc(\"antenna.xml\", \"/root/Antenna[@id='monopole']\")"
param *.node[*].nic.phy80211p.antennaOffsetY "0 m"
param *.node[*].nic.phy80211p.antennaOffsetZ "1.895 m"
param *.node[*].applType "\"TraCIDemo11p\""
param *.node[*].appl.headerLength "80 bit"
param *.node[*].appl.sendBeacons false
param *.node[*].appl.dataOnSch false
param *.node[*].appl.beaconInterval 0.1s
param **.node[*].appl.dataUserPriority 5
param **.node[*].appl.beaconUserPriority 7
param *.node[*].veinsmobility.x 0
param *.node[*].veinsmobility.y 0
param *.node[*].veinsmobility.z 0
param *.node[*].veinsmobility.setHostSpeed false

scalar RSUExampleScenario.node[0].appl generatedWSMs 0
scalar RSUExampleScenario.node[0].appl receivedWSMs 0
scalar RSUExampleScenario.node[0].appl generatedBSMs 897
scalar RSUExampleScenario.node[0].appl receivedBSMs 23836
scalar RSUExampleScenario.node[0].appl generatedWSAs 0
scalar RSUExampleScenario.node[0].appl receivedWSAs 0
scalar RSUExampleScenario.node[0].nic.phy80211p busyTime 0.032653913043477
scalar RSUExampleScenario.node[0].nic.mac1609_4 ReceivedUnicastPackets 0
scalar RSUExampleScenario.node[0].nic.mac1609_4 ReceivedBroadcasts 23836
scalar RSUExampleScenario.node[0].nic.mac1609_4 SentPackets 897
scalar RSUExampleScenario.node[0].nic.mac1609_4 SentAcknowledgements 0
scalar RSUExampleScenario.node[0].nic.mac1609_4 RetriesExceeded 0
scalar RSUExampleScenario.node[0].nic.mac1609_4 SNIRLostPackets 4328
scalar RSUExampleScenario.node[0].nic.mac1609_4 RXTXLostPackets 0
scalar RSUExampleScenario.node[0].nic.mac1609_4 TotalLostPackets 4328
scalar RSUExampleScenario.node[0].nic.mac1609_4 DroppedPacketsInMac 0
scalar RSUExampleScenario.node[0].nic.mac1609_4 TooLittleTime 0
scalar RSUExampleScenario.node[0].nic.mac1609_4 TimesIntoBackoff 897
scalar RSUExampleScenario.node[0].nic.mac1609_4 SlotsBackoff 1301
scalar RSUExampleScenario.node[0].nic.mac1609_4 NumInternalContention 0
scalar RSUExampleScenario.node[0].nic.mac1609_4 totalBusyTime 3.023033
scalar RSUExampleScenario.node[0].nic.mac1609_4 retriesExceeded:count 0
attr source org_car2x_veins_modules_mac_sigRetriesExceeded
scalar RSUExampleScenario.node[0].nic.mac1609_4 sentAcks:count 0
attr source org_car2x_veins_modules_mac_sigSentAck
scalar RSUExampleScenario.node[0].nic.mac1609_4 sentPackets:count 897
attr source org_car2x_veins_modules_mac_sigSentPacket
scalar RSUExampleScenario.node[0].nic.mac1609_4 collisions:count 0
attr source org_car2x_veins_modules_mac_sigCollision
scalar RSUExampleScenario.node[0].nic.mac1609_4 channelBusy:timeavg 0.033701594202896
attr source org_car2x_veins_modules_mac_sigChannelBusy
scalar RSUExampleScenario.node[0].veinsmobility startTime 0.1
scalar RSUExampleScenario.node[0].veinsmobility totalTime 89.6
scalar RSUExampleScenario.node[0].veinsmobility stopTime 89.8
scalar RSUExampleScenario.node[0].veinsmobility minSpeed 11.038293154375
scalar RSUExampleScenario.node[0].veinsmobility maxSpeed 11.162998839823
scalar RSUExampleScenario.node[0].veinsmobility totalDistance 994.72917952455
scalar RSUExampleScenario.node[0].veinsmobility totalCO2Emission 180.39464125939
scalar RSUExampleScenario.node[1].appl generatedWSMs 0
scalar RSUExampleScenario.node[1].appl receivedWSMs 0
scalar RSUExampleScenario.node[1].appl generatedBSMs 955
scalar RSUExampleScenario.node[1].appl receivedBSMs 25147
scalar RSUExampleScenario.node[1].appl generatedWSAs 0
scalar RSUExampleScenario.node[1].appl receivedWSAs 0
scalar RSUExampleScenario.node[1].nic.phy80211p busyTime 0.034703329842926
scalar RSUExampleScenario.node[1].nic.mac1609_4 ReceivedUnicastPackets 0
scalar RSUExampleScenario.node[1].nic.mac1609_4 ReceivedBroadcasts 25147
scalar RSUExampleScenario.node[1].nic.mac1609_4 SentPackets 955
scalar RSUExampleScenario.node[1].nic.mac1609_4 SentAcknowledgements 0
scalar RSUExampleScenario.node[1].nic.mac1609_4 RetriesExceeded 0
scalar RSUExampleScenario.node[1].nic.mac1609_4 SNIRLostPackets 6720
scalar RSUExampleScenario.node[1].nic.mac1609_4 RXTXLostPackets 0
scalar RSUExampleScenario.node[1].nic.mac1609_4 TotalLostPackets 6720
scalar RSUExampleScenario.node[1].nic.mac1609_4 DroppedPacketsInMac 0
scalar RSUExampleScenario.node[1].nic.mac1609_4 TooLittleTime 0
scalar RSUExampleScenario.node[1].nic.mac1609_4 TimesIntoBackoff 955
scalar RSUExampleScenario.node[1].nic.mac1609_4 SlotsBackoff 1448
scalar RSUExampleScenario.node[1].nic.mac1609_4 NumInternalContention 0
scalar RSUExampleScenario.node[1].nic.mac1609_4 totalBusyTime 3.405811
scalar RSUExampleScenario.node[1].nic.mac1609_4 retriesExceeded:count 0
attr source org_car2x_veins_modules_mac_sigRetriesExceeded
scalar RSUExampleScenario.node[1].nic.mac1609_4 sentAcks:count 0
attr source org_car2x_veins_modules_mac_sigSentAck
scalar RSUExampleScenario.node[1].nic.mac1609_4 sentPackets:count 955
attr source org_car2x_veins_modules_mac_sigSentPacket
scalar RSUExampleScenario.node[1].nic.mac1609_4 collisions:count 0
attr source org_car2x_veins_modules_mac_sigCollision
scalar RSUExampleScenario.node[1].nic.mac1609_4 channelBusy:timeavg 0.03566294240837
attr source org_car2x_veins_modules_mac_sigChannelBusy
scalar RSUExampleScenario.node[1].veinsmobility startTime 0.1
scalar RSUExampleScenario.node[1].veinsmobility totalTime 95.4
scalar RSUExampleScenario.node[1].veinsmobility stopTime 95.6
scalar RSUExampleScenario.node[1].veinsmobility minSpeed 10.358807746922
scalar RSUExampleScenario.node[1].veinsmobility maxSpeed 10.483369944141
scalar RSUExampleScenario.node[1].veinsmobility totalDistance 994.24710935183
scalar RSUExampleScenario.node[1].veinsmobility totalCO2Emission 184.52012013925
scalar RSUExampleScenario.node[2].appl generatedWSMs 0
scalar RSUExampleScenario.node[2].appl receivedWSMs 0
scalar RSUExampleScenario.node[2].appl generatedBSMs 972
scalar RSUExampleScenario.node[2].appl receivedBSMs 27288
scalar RSUExampleScenario.node[2].appl generatedWSAs 0
scalar RSUExampleScenario.node[2].appl receivedWSAs 0
scalar RSUExampleScenario.node[2].nic.phy80211p busyTime 0.036692098765424
scalar RSUExampleScenario.node[2].nic.mac1609_4 ReceivedUnicastPackets 0
scalar RSUExampleScenario.node[2].nic.mac1609_4 ReceivedBroadcasts 27288
scalar RSUExampleScenario.node[2].nic.mac1609_4 SentPackets 972
scalar RSUExampleScenario.node[2].nic.mac1609_4 SentAcknowledgements 0
scalar RSUExampleScenario.node[2].nic.mac1609_4 RetriesExceeded 0
scalar RSUExampleScenario.node[2].nic.mac1609_4 SNIRLostPackets 7005
scalar RSUExampleScenario.node[2].nic.mac1609_4 RXTXLostPackets 0
scalar RSUExampleScenario.node[2].nic.mac1609_4 TotalLostPackets 7005
scalar RSUExampleScenario.node[2].nic.mac1609_4 DroppedPacketsInMac 0
scalar RSUExampleScenario.node[2].nic.mac1609_4 TooLittleTime 0
scalar RSUExampleScenario.node[2].nic.mac1609_4 TimesIntoBackoff 972
scalar RSUExampleScenario.node[2].nic.mac1609_4 SlotsBackoff 1411
scalar RSUExampleScenario.node[2].nic.mac1609_4 NumInternalContention 0
scalar RSUExampleScenario.node[2].nic.mac1609_4 totalBusyTime 3.65574
scalar RSUExampleScenario.node[2].nic.mac1609_4 retriesExceeded:count 0
attr source org_car2x_veins_modules_mac_sigRetriesExceeded
scalar RSUExampleScenario.node[2].nic.mac1609_4 sentAcks:count 0
attr source org_car2x_veins_modules_mac_sigSentAck
scalar RSUExampleScenario.node[2].nic.mac1609_4 sentPackets:count 972
attr source org_car2x_veins_modules_mac_sigSentPacket
scalar RSUExampleScenario.node[2].nic.mac1609_4 collisions:count 0
attr source org_car2x_veins_modules_mac_sigCollision
scalar RSUExampleScenario.node[2].nic.mac1609_4 channelBusy:timeavg 0.037610493827151
attr source org_car2x_veins_modules_mac_sigChannelBusy
scalar RSUExampleScenario.node[2].veinsmobility startTime 2.1
scalar RSUExampleScenario.node[2].veinsmobility totalTime 97.1
scalar RSUExampleScenario.node[2].veinsmobility stopTime 99.3
scalar RSUExampleScenario.node[2].veinsmobility minSpeed 10.174822945684
scalar RSUExampleScenario.node[2].veinsmobility maxSpeed 10.299475768768
scalar RSUExampleScenario.node[2].veinsmobility totalDistance 994.09991238345
scalar RSUExampleScenario.node[2].veinsmobility totalCO2Emission 184.74974933807
scalar RSUExampleScenario.node[3].appl generatedWSMs 0
scalar RSUExampleScenario.node[3].appl receivedWSMs 0
scalar RSUExampleScenario.node[3].appl generatedBSMs 986
scalar RSUExampleScenario.node[3].appl receivedBSMs 29210
scalar RSUExampleScenario.node[3].appl generatedWSAs 0
scalar RSUExampleScenario.node[3].appl receivedWSAs 0
scalar RSUExampleScenario.node[3].nic.phy80211p busyTime 0.03855172413792
scalar RSUExampleScenario.node[3].nic.mac1609_4 ReceivedUnicastPackets 0
scalar RSUExampleScenario.node[3].nic.mac1609_4 ReceivedBroadcasts 29210
scalar RSUExampleScenario.node[3].nic.mac1609_4 SentPackets 986
scalar RSUExampleScenario.node[3].nic.mac1609_4 SentAcknowledgements 0
scalar RSUExampleScenario.node[3].nic.mac1609_4 RetriesExceeded 0
scalar RSUExampleScenario.node[3].nic.mac1609_4 SNIRLostPackets 7340
scalar RSUExampleScenario.node[3].nic.mac1609_4 RXTXLostPackets 0
scalar RSUExampleScenario.node[3].nic.mac1609_4 TotalLostPackets 7340
scalar RSUExampleScenario.node[3].nic.mac1609_4 DroppedPacketsInMac 0
scalar RSUExampleScenario.node[3].nic.mac1609_4 TooLittleTime 0
scalar RSUExampleScenario.node[3].nic.mac1609_4 TimesIntoBackoff 986
scalar RSUExampleScenario.node[3].nic.mac1609_4 SlotsBackoff 1452
scalar RSUExampleScenario.node[3].nic.mac1609_4 NumInternalContention 0
scalar RSUExampleScenario.node[3].nic.mac1609_4 totalBusyTime 3.888194
scalar RSUExampleScenario.node[3].nic.mac1609_4 retriesExceeded:count 0
attr source org_car2x_veins_modules_mac_sigRetriesExceeded
scalar RSUExampleScenario.node[3].nic.mac1609_4 sentAcks:count 0
attr source org_car2x_veins_modules_mac_sigSentAck
scalar RSUExampleScenario.node[3].nic.mac1609_4 sentPackets:count 986
attr source org_car2x_veins_modules_mac_sigSentPacket
scalar RSUExampleScenario.node[3].nic.mac1609_4 collisions:count 0
attr source org_car2x_veins_modules_mac_sigCollision
scalar RSUExampleScenario.node[3].nic.mac1609_4 channelBusy:timeavg 0.039434016227169
attr source org_car2x_veins_modules_mac_sigChannelBusy
scalar RSUExampleScenario.node[3].veinsmobility startTime 4.1
scalar RSUExampleScenario.node[3].veinsmobility totalTime 98.5
scalar RSUExampleScenario.node[3].veinsmobility stopTime 102.7
scalar RSUExampleScenario.node[3].veinsmobility minSpeed 10.028144492843
scalar RSUExampleScenario.node[3].veinsmobility maxSpeed 10.152949146333
scalar RSUExampleScenario.node[3].veinsmobility totalDistance 993.83930657466
scalar RSUExampleScenario.node[3].veinsmobility totalCO2Emission 188.29780870108
scalar RSUExampleScenario.node[5].appl generatedWSMs 0
scalar RSUExampleScenario.node[5].appl receivedWSMs 0
scalar RSUExampleScenario.node[5].appl generatedBSMs 982
scalar RSUExampleScenario.node[5].appl receivedBSMs 30206
scalar RSUExampleScenario.node[5].appl generatedWSAs 0
scalar RSUExampleScenario.node[5].appl receivedWSAs 0
scalar RSUExampleScenario.node[5].nic.phy80211p busyTime 0.039786883910375
scalar RSUExampleScenario.node[5].nic.mac1609_4 ReceivedUnicastPackets 0
scalar RSUExampleScenario.node[5].nic.mac1609_4 ReceivedBroadcasts 30206
scalar RSUExampleScenario.node[5].nic.mac1609_4 SentPackets 982
scalar RSUExampleScenario.node[5].nic.mac1609_4 SentAcknowledgements 0
scalar RSUExampleScenario.node[5].nic.mac1609_4 RetriesExceeded 0
scalar RSUExampleScenario.node[5].nic.mac1609_4 SNIRLostPackets 7362
scalar RSUExampleScenario.node[5].nic.mac1609_4 RXTXLostPackets 0
scalar RSUExampleScenario.node[5].nic.mac1609_4 TotalLostPackets 7362
scalar RSUExampleScenario.node[5].nic.mac1609_4 DroppedPacketsInMac 0
scalar RSUExampleScenario.node[5].nic.mac1609_4 TooLittleTime 0
scalar RSUExampleScenario.node[5].nic.mac1609_4 TimesIntoBackoff 982
scalar RSUExampleScenario.node[5].nic.mac1609_4 SlotsBackoff 1426
scalar RSUExampleScenario.node[5].nic.mac1609_4 NumInternalContention 0
scalar RSUExampleScenario.node[5].nic.mac1609_4 totalBusyTime 3.990942
scalar RSUExampleScenario.node[5].nic.mac1609_4 retriesExceeded:count 0
attr source org_car2x_veins_modules_mac_sigRetriesExceeded
scalar RSUExampleScenario.node[5].nic.mac1609_4 sentAcks:count 0
attr source org_car2x_veins_modules_mac_sigSentAck
scalar RSUExampleScenario.node[5].nic.mac1609_4 sentPackets:count 982
attr source org_car2x_veins_modules_mac_sigSentPacket
scalar RSUExampleScenario.node[5].nic.mac1609_4 collisions:count 0
attr source org_car2x_veins_modules_mac_sigCollision
scalar RSUExampleScenario.node[5].nic.mac1609_4 channelBusy:timeavg 0.04064095723013
attr source org_car2x_veins_modules_mac_sigChannelBusy
scalar RSUExampleScenario.node[5].veinsmobility startTime 6.1
scalar RSUExampleScenario.node[5].veinsmobility totalTime 98.1
scalar RSUExampleScenario.node[5].veinsmobility stopTime 104.3
scalar RSUExampleScenario.node[5].veinsmobility minSpeed 9.9794842992862
scalar RSUExampleScenario.node[5].veinsmobility maxSpeed 11.549213189518
scalar RSUExampleScenario.node[5].veinsmobility totalDistance 993.86302315065
scalar RSUExampleScenario.node[5].veinsmobility totalCO2Emission 202.56659195619
scalar RSUExampleScenario.node[6].appl generatedWSMs 0
scalar RSUExampleScenario.node[6].appl receivedWSMs 0
scalar RSUExampleScenario.node[6].appl generatedBSMs 1060
scalar RSUExampleScenario.node[6].appl receivedBSMs 35895
scalar RSUExampleScenario.node[6].appl generatedWSAs 0
scalar RSUExampleScenario.node[6].appl receivedWSAs 0
scalar RSUExampleScenario.node[6].nic.phy80211p busyTime 0.043600528301893
scalar RSUExampleScenario.node[6].nic.mac1609_4 ReceivedUnicastPackets 0
scalar RSUExampleScenario.node[6].nic.mac1609_4 ReceivedBroadcasts 35895
scalar RSUExampleScenario.node[6].nic.mac1609_4 SentPackets 1060
scalar RSUExampleScenario.node[6].nic.mac1609_4 SentAcknowledgements 0
scalar RSUExampleScenario.node[6].nic.mac1609_4 RetriesExceeded 0
scalar RSUExampleScenario.node[6].nic.mac1609_4 SNIRLostPackets 8544
scalar RSUExampleScenario.node[6].nic.mac1609_4 RXTXLostPackets 0
scalar RSUExampleScenario.node[6].nic.mac1609_4 TotalLostPackets 8544
scalar RSUExampleScenario.node[6].nic.mac1609_4 DroppedPacketsInMac 0
scalar RSUExampleScenario.node[6].nic.mac1609_4 TooLittleTime 0
scalar RSUExampleScenario.node[6].nic.mac1609_4 TimesIntoBackoff 1060
scalar RSUExampleScenario.node[6].nic.mac1609_4 SlotsBackoff 1644
scalar RSUExampleScenario.node[6].nic.mac1609_4 NumInternalContention 0
scalar RSUExampleScenario.node[6].nic.mac1609_4 totalBusyTime 4.70082
scalar RSUExampleScenario.node[6].nic.mac1609_4 retriesExceeded:count 0
attr source org_car2x_veins_modules_mac_sigRetriesExceeded
scalar RSUExampleScenario.node[6].nic.mac1609_4 sentAcks:count 0
attr source org_car2x_veins_modules_mac_sigSentAck
scalar RSUExampleScenario.node[6].nic.mac1609_4 sentPackets:count 1060
attr source org_car2x_veins_modules_mac_sigSentPacket
scalar RSUExampleScenario.node[6].nic.mac1609_4 collisions:count 0
attr source org_car2x_veins_modules_mac_sigCollision
scalar RSUExampleScenario.node[6].nic.mac1609_4 channelBusy:timeavg 0.044347358490574
attr source org_car2x_veins_modules_mac_sigChannelBusy
scalar RSUExampleScenario.node[6].veinsmobility startTime 8.1
scalar RSUExampleScenario.node[6].veinsmobility totalTime 105.9
scalar RSUExampleScenario.node[6].veinsmobility stopTime 114.1
scalar RSUExampleScenario.node[6].veinsmobility minSpeed 9.3293234682701
scalar RSUExampleScenario.node[6].veinsmobility maxSpeed 9.4539956916765
scalar RSUExampleScenario.node[6].veinsmobility totalDistance 994.54019199631
scalar RSUExampleScenario.node[6].veinsmobility totalCO2Emission 195.39550092656
scalar RSUExampleScenario.node[8].appl generatedWSMs 0
scalar RSUExampleScenario.node[8].appl receivedWSMs 0
scalar RSUExampleScenario.node[8].appl generatedBSMs 1056
scalar RSUExampleScenario.node[8].appl receivedBSMs 36928
scalar RSUExampleScenario.node[8].appl generatedWSAs 0
scalar RSUExampleScenario.node[8].appl receivedWSAs 0
scalar RSUExampleScenario.node[8].nic.phy80211p busyTime 0.044812575757585
scalar RSUExampleScenario.node[8].nic.mac1609_4 ReceivedUnicastPackets 0
scalar RSUExampleScenario.node[8].nic.mac1609_4 ReceivedBroadcasts 36928
scalar RSUExampleScenario.node[8].nic.mac1609_4 SentPackets 1056
scalar RSUExampleScenario.node[8].nic.mac1609_4 SentAcknowledgements 0
scalar RSUExampleScenario.node[8].nic.mac1609_4 RetriesExceeded 0
scalar RSUExampleScenario.node[8].nic.mac1609_4 SNIRLostPackets 8574
scalar RSUExampleScenario.node[8].nic.mac1609_4 RXTXLostPackets 0
scalar RSUExampleScenario.node[8].nic.mac1609_4 TotalLostPackets 8574
scalar RSUExampleScenario.node[8].nic.mac1609_4 DroppedPacketsInMac 0
scalar RSUExampleScenario.node[8].nic.mac1609_4 TooLittleTime 0
scalar RSUExampleScenario.node[8].nic.mac1609_4 TimesIntoBackoff 1056
scalar RSUExampleScenario.node[8].nic.mac1609_4 SlotsBackoff 1638
scalar RSUExampleScenario.node[8].nic.mac1609_4 NumInternalContention 0
scalar RSUExampleScenario.node[8].nic.mac1609_4 totalBusyTime 4.808248
scalar RSUExampleScenario.node[8].nic.mac1609_4 retriesExceeded:count 0
attr source org_car2x_veins_modules_mac_sigRetriesExceeded
scalar RSUExampleScenario.node[8].nic.mac1609_4 sentAcks:count 0
attr source org_car2x_veins_modules_mac_sigSentAck
scalar RSUExampleScenario.node[8].nic.mac1609_4 sentPackets:count 1056
attr source org_car2x_veins_modules_mac_sigSentPacket
scalar RSUExampleScenario.node[8].nic.mac1609_4 collisions:count 0
attr source org_car2x_veins_modules_mac_sigCollision
scalar RSUExampleScenario.node[8].nic.mac1609_4 channelBusy:timeavg 0.045532651515163
attr source org_car2x_veins_modules_mac_sigChannelBusy
scalar RSUExampleScenario.node[8].veinsmobility startTime 10.1
scalar RSUExampleScenario.node[8].veinsmobility totalTime 105.5
scalar RSUExampleScenario.node[8].veinsmobility stopTime 115.7
scalar RSUExampleScenario.node[8].veinsmobility minSpeed 9.2805788465369
scalar RSUExampleScenario.node[8].veinsmobility maxSpeed 10.53801051345
scalar RSUExampleScenario.node[8].veinsmobility totalDistance 993.81196814186
scalar RSUExampleScenario.node[8].veinsmobility totalCO2Emission 207.5230188785
scalar RSUExampleScenario.node[9].appl generatedWSMs 0
scalar RSUExampleScenario.node[9].appl receivedWSMs 0
scalar RSUExampleScenario.node[9].appl generatedBSMs 1051
scalar RSUExampleScenario.node[9].appl receivedBSMs 37848
scalar RSUExampleScenario.node[9].appl generatedWSAs 0
scalar RSUExampleScenario.node[9].appl receivedWSAs 0
scalar RSUExampleScenario.node[9].nic.phy80211p busyTime 0.045968791627034
scalar RSUExampleScenario.node[9].nic.mac1609_4 ReceivedUnicastPackets 0
scalar RSUExampleScenario.node[9].nic.mac1609_4 ReceivedBroadcasts 37848
scalar RSUExampleScenario.node[9].nic.mac1609_4 SentPackets 1051
scalar RSUExampleScenario.node[9].nic.mac1609_4 SentAcknowledgements 0
scalar RSUExampleScenario.node[9].nic.mac1609_4 RetriesExceeded 0
scalar RSUExampleScenario.node[9].nic.mac1609_4 SNIRLostPackets 8607
scalar RSUExampleScenario.node[9].nic.mac1609_4 RXTXLostPackets 0
scalar RSUExampleScenario.node[9].nic.mac1609_4 TotalLostPackets 8607
scalar RSUExampleScenario.node[9].nic.mac1609_4 DroppedPacketsInMac 0
scalar RSUExampleScenario.node[9].nic.mac1609_4 TooLittleTime 0
scalar RSUExampleScenario.node[9].nic.mac1609_4 TimesIntoBackoff 1051
scalar RSUExampleScenario.node[9].nic.mac1609_4 SlotsBackoff 1575
scalar RSUExampleScenario.node[9].nic.mac1609_4 NumInternalContention 0
scalar RSUExampleScenario.node[9].nic.mac1609_4 totalBusyTime 4.904859
scalar RSUExampleScenario.node[9].nic.mac1609_4 retriesExceeded:count 0
attr source org_car2x_veins_modules_mac_sigRetriesExceeded
scalar RSUExampleScenario.node[9].nic.mac1609_4 sentAcks:count 0
attr source org_car2x_veins_modules_mac_sigSentAck
scalar RSUExampleScenario.node[9].nic.mac1609_4 sentPackets:count 1051
attr source org_car2x_veins_modules_mac_sigSentPacket
scalar RSUExampleScenario.node[9].nic.mac1609_4 collisions:count 0
attr source org_car2x_veins_modules_mac_sigCollision
scalar RSUExampleScenario.node[9].nic.mac1609_4 channelBusy:timeavg 0.046668496669852
attr source org_car2x_veins_modules_mac_sigChannelBusy
scalar RSUExampleScenario.node[9].veinsmobility startTime 12.1
scalar RSUExampleScenario.node[9].veinsmobility totalTime 105
scalar RSUExampleScenario.node[9].veinsmobility stopTime 117.2
scalar RSUExampleScenario.node[9].veinsmobility minSpeed 9.2556574591928
scalar RSUExampleScenario.node[9].veinsmobility maxSpeed 12.634977492022
scalar RSUExampleScenario.node[9].veinsmobility totalDistance 993.90151855141
scalar RSUExampleScenario.node[9].veinsmobility totalCO2Emission 219.81542265869
scalar RSUExampleScenario.node[4].appl generatedWSMs 0
scalar RSUExampleScenario.node[4].appl receivedWSMs 0
scalar RSUExampleScenario.node[4].appl generatedBSMs 1135
scalar RSUExampleScenario.node[4].appl receivedBSMs 40076
scalar RSUExampleScenario.node[4].appl generatedWSAs 0
scalar RSUExampleScenario.node[4].appl receivedWSAs 0
scalar RSUExampleScenario.node[4].nic.phy80211p busyTime 0.043900828193848
scalar RSUExampleScenario.node[4].nic.mac1609_4 ReceivedUnicastPackets 0
scalar RSUExampleScenario.node[4].nic.mac1609_4 ReceivedBroadcasts 40076
scalar RSUExampleScenario.node[4].nic.mac1609_4 SentPackets 1135
scalar RSUExampleScenario.node[4].nic.mac1609_4 SentAcknowledgements 0
scalar RSUExampleScenario.node[4].nic.mac1609_4 RetriesExceeded 0
scalar RSUExampleScenario.node[4].nic.mac1609_4 SNIRLostPackets 7835
scalar RSUExampleScenario.node[4].nic.mac1609_4 RXTXLostPackets 0
scalar RSUExampleScenario.node[4].nic.mac1609_4 TotalLostPackets 7835
scalar RSUExampleScenario.node[4].nic.mac1609_4 DroppedPacketsInMac 0
scalar RSUExampleScenario.node[4].nic.mac1609_4 TooLittleTime 0
scalar RSUExampleScenario.node[4].nic.mac1609_4 TimesIntoBackoff 1135
scalar RSUExampleScenario.node[4].nic.mac1609_4 SlotsBackoff 1707
scalar RSUExampleScenario.node[4].nic.mac1609_4 NumInternalContention 0
scalar RSUExampleScenario.node[4].nic.mac1609_4 totalBusyTime 5.063127
scalar RSUExampleScenario.node[4].nic.mac1609_4 retriesExceeded:count 0
attr source org_car2x_veins_modules_mac_sigRetriesExceeded
scalar RSUExampleScenario.node[4].nic.mac1609_4 sentAcks:count 0
attr source org_car2x_veins_modules_mac_sigSentAck
scalar RSUExampleScenario.node[4].nic.mac1609_4 sentPackets:count 1135
attr source org_car2x_veins_modules_mac_sigSentPacket
scalar RSUExampleScenario.node[4].nic.mac1609_4 collisions:count 0
attr source org_car2x_veins_modules_mac_sigCollision
scalar RSUExampleScenario.node[4].nic.mac1609_4 channelBusy:timeavg 0.044609048458167
attr source org_car2x_veins_modules_mac_sigChannelBusy
scalar RSUExampleScenario.node[4].veinsmobility startTime 5.1
scalar RSUExampleScenario.node[4].veinsmobility totalTime 113.4
scalar RSUExampleScenario.node[4].veinsmobility stopTime 118.6
scalar RSUExampleScenario.node[4].veinsmobility minSpeed 8.7062388754498
scalar RSUExampleScenario.node[4].veinsmobility maxSpeed 8.8311696493115
scalar RSUExampleScenario.node[4].veinsmobility totalDistance 994.35811471431
scalar RSUExampleScenario.node[4].veinsmobility totalCO2Emission 200.84659632782
scalar RSUExampleScenario.node[10].appl generatedWSMs 0
scalar RSUExampleScenario.node[10].appl receivedWSMs 0
scalar RSUExampleScenario.node[10].appl generatedBSMs 1048
scalar RSUExampleScenario.node[10].appl receivedBSMs 38896
scalar RSUExampleScenario.node[10].appl generatedWSAs 0
scalar RSUExampleScenario.node[10].appl receivedWSAs 0
scalar RSUExampleScenario.node[10].nic.phy80211p busyTime 0.047167175572535
scalar RSUExampleScenario.node[10].nic.mac1609_4 ReceivedUnicastPackets 0
scalar RSUExampleScenario.node[10].nic.mac1609_4 ReceivedBroadcasts 38896
scalar RSUExampleScenario.node[10].nic.mac1609_4 SentPackets 1048
scalar RSUExampleScenario.node[10].nic.mac1609_4 SentAcknowledgements 0
scalar RSUExampleScenario.node[10].nic.mac1609_4 RetriesExceeded 0
scalar RSUExampleScenario.node[10].nic.mac1609_4 SNIRLostPackets 8634
scalar RSUExampleScenario.node[10].nic.mac1609_4 RXTXLostPackets 0
scalar RSUExampleScenario.node[10].nic.mac1609_4 TotalLostPackets 8634
scalar RSUExampleScenario.node[10].nic.mac1609_4 DroppedPacketsInMac 0
scalar RSUExampleScenario.node[10].nic.mac1609_4 TooLittleTime 0
scalar RSUExampleScenario.node[10].nic.mac1609_4 TimesIntoBackoff 1048
scalar RSUExampleScenario.node[10].nic.mac1609_4 SlotsBackoff 1585
scalar RSUExampleScenario.node[10].nic.mac1609_4 NumInternalContention 0
scalar RSUExampleScenario.node[10].nic.mac1609_4 totalBusyTime 5.013952
scalar RSUExampleScenario.node[10].nic.mac1609_4 retriesExceeded:count 0
attr source org_car2x_veins_modules_mac_sigRetriesExceeded
scalar RSUExampleScenario.node[10].nic.mac1609_4 sentAcks:count 0
attr source org_car2x_veins_modules_mac_sigSentAck
scalar RSUExampleScenario.node[10].nic.mac1609_4 sentPackets:count 1048
attr source org_car2x_veins_modules_mac_sigSentPacket
scalar RSUExampleScenario.node[10].nic.mac1609_4 collisions:count 0
attr source org_car2x_veins_modules_mac_sigCollision
scalar RSUExampleScenario.node[10].nic.mac1609_4 channelBusy:timeavg 0.047843053435132
attr source org_car2x_veins_modules_mac_sigChannelBusy
scalar RSUExampleScenario.node[10].veinsmobility startTime 14.1
scalar RSUExampleScenario.node[10].veinsmobility totalTime 104.7
scalar RSUExampleScenario.node[10].veinsmobility stopTime 118.9
scalar RSUExampleScenario.node[10].veinsmobility minSpeed 9.252063093987
scalar RSUExampleScenario.node[10].veinsmobility maxSpeed 11.249709610288
scalar RSUExampleScenario.node[10].veinsmobility totalDistance 994.25541307314
scalar RSUExampleScenario.node[10].veinsmobility totalCO2Emission 215.75232495952
scalar RSUExampleScenario.manager roiArea 0
scalar RSUExampleScenario.node[7].appl generatedWSMs 0
scalar RSUExampleScenario.node[7].appl receivedWSMs 0
scalar RSUExampleScenario.node[7].appl generatedBSMs 1099
scalar RSUExampleScenario.node[7].appl receivedBSMs 42128
scalar RSUExampleScenario.node[7].appl generatedWSAs 0
scalar RSUExampleScenario.node[7].appl receivedWSAs 0
scalar RSUExampleScenario.node[7].nic.phy80211p busyTime 0.046059035486824
scalar RSUExampleScenario.node[7].nic.mac1609_4 ReceivedUnicastPackets 0
scalar RSUExampleScenario.node[7].nic.mac1609_4 ReceivedBroadcasts 42128
scalar RSUExampleScenario.node[7].nic.mac1609_4 SentPackets 1099
scalar RSUExampleScenario.node[7].nic.mac1609_4 SentAcknowledgements 0
scalar RSUExampleScenario.node[7].nic.mac1609_4 RetriesExceeded 0
scalar RSUExampleScenario.node[7].nic.mac1609_4 SNIRLostPackets 6544
scalar RSUExampleScenario.node[7].nic.mac1609_4 RXTXLostPackets 0
scalar RSUExampleScenario.node[7].nic.mac1609_4 TotalLostPackets 6544
scalar RSUExampleScenario.node[7].nic.mac1609_4 DroppedPacketsInMac 0
scalar RSUExampleScenario.node[7].nic.mac1609_4 TooLittleTime 0
scalar RSUExampleScenario.node[7].nic.mac1609_4 TimesIntoBackoff 1099
scalar RSUExampleScenario.node[7].nic.mac1609_4 SlotsBackoff 1628
scalar RSUExampleScenario.node[7].nic.mac1609_4 NumInternalContention 0
scalar RSUExampleScenario.node[7].nic.mac1609_4 totalBusyTime 5.136931
scalar RSUExampleScenario.node[7].nic.mac1609_4 retriesExceeded:count 0
attr source org_car2x_veins_modules_mac_sigRetriesExceeded
scalar RSUExampleScenario.node[7].nic.mac1609_4 sentAcks:count 0
attr source org_car2x_veins_modules_mac_sigSentAck
scalar RSUExampleScenario.node[7].nic.mac1609_4 sentPackets:count 1099
attr source org_car2x_veins_modules_mac_sigSentPacket
scalar RSUExampleScenario.node[7].nic.mac1609_4 collisions:count 0
attr source org_car2x_veins_modules_mac_sigCollision
scalar RSUExampleScenario.node[7].nic.mac1609_4 channelBusy:timeavg 0.04674186533214
attr source org_car2x_veins_modules_mac_sigChannelBusy
scalar RSUExampleScenario.node[7].veinsmobility startTime 10.1
scalar RSUExampleScenario.node[7].veinsmobility totalTime 109.9
scalar RSUExampleScenario.node[7].veinsmobility stopTime 120
scalar RSUExampleScenario.node[7].veinsmobility minSpeed 7.5196211834572
scalar RSUExampleScenario.node[7].veinsmobility maxSpeed 7.6443216845818
scalar RSUExampleScenario.node[7].veinsmobility totalDistance 833.55903154553
scalar RSUExampleScenario.node[7].veinsmobility totalCO2Emission 183.84147586879
scalar RSUExampleScenario.node[11].appl generatedWSMs 0
scalar RSUExampleScenario.node[11].appl receivedWSMs 0
scalar RSUExampleScenario.node[11].appl generatedBSMs 1049
scalar RSUExampleScenario.node[11].appl receivedBSMs 41991
scalar RSUExampleScenario.node[11].appl generatedWSAs 0
scalar RSUExampleScenario.node[11].appl receivedWSAs 0
scalar RSUExampleScenario.node[11].nic.phy80211p busyTime 0.047818188751209
scalar RSUExampleScenario.node[11].nic.mac1609_4 ReceivedUnicastPackets 0
scalar RSUExampleScenario.node[11].nic.mac1609_4 ReceivedBroadcasts 41991
scalar RSUExampleScenario.node[11].nic.mac1609_4 SentPackets 1049
scalar RSUExampleScenario.node[11].nic.mac1609_4 SentAcknowledgements 0
scalar RSUExampleScenario.node[11].nic.mac1609_4 RetriesExceeded 0
scalar RSUExampleScenario.node[11].nic.mac1609_4 SNIRLostPackets 6241
scalar RSUExampleScenario.node[11].nic.mac1609_4 RXTXLostPackets 0
scalar RSUExampleScenario.node[11].nic.mac1609_4 TotalLostPackets 6241
scalar RSUExampleScenario.node[11].nic.mac1609_4 DroppedPacketsInMac 0
scalar RSUExampleScenario.node[11].nic.mac1609_4 TooLittleTime 0
scalar RSUExampleScenario.node[11].nic.mac1609_4 TimesIntoBackoff 1049
scalar RSUExampleScenario.node[11].nic.mac1609_4 SlotsBackoff 1586
scalar RSUExampleScenario.node[11].nic.mac1609_4 NumInternalContention 0
scalar RSUExampleScenario.node[11].nic.mac1609_4 totalBusyTime 5.085921
scalar RSUExampleScenario.node[11].nic.mac1609_4 retriesExceeded:count 0
attr source org_car2x_veins_modules_mac_sigRetriesExceeded
scalar RSUExampleScenario.node[11].nic.mac1609_4 sentAcks:count 0
attr source org_car2x_veins_modules_mac_sigSentAck
scalar RSUExampleScenario.node[11].nic.mac1609_4 sentPackets:count 1049
attr source org_car2x_veins_modules_mac_sigSentPacket
scalar RSUExampleScenario.node[11].nic.mac1609_4 collisions:count 0
attr source org_car2x_veins_modules_mac_sigCollision
scalar RSUExampleScenario.node[11].nic.mac1609_4 channelBusy:timeavg 0.048483517635863
attr source org_car2x_veins_modules_mac_sigChannelBusy
scalar RSUExampleScenario.node[11].veinsmobility startTime 15.1
scalar RSUExampleScenario.node[11].veinsmobility totalTime 104.9
scalar RSUExampleScenario.node[11].veinsmobility stopTime 120
scalar RSUExampleScenario.node[11].veinsmobility minSpeed 7.4777231342422
scalar RSUExampleScenario.node[11].veinsmobility maxSpeed 9.4509031335814
scalar RSUExampleScenario.node[11].veinsmobility totalDistance 818.23136892453
scalar RSUExampleScenario.node[11].veinsmobility totalCO2Emission 183.50749260053
scalar RSUExampleScenario.node[12].appl generatedWSMs 0
scalar RSUExampleScenario.node[12].appl receivedWSMs 0
scalar RSUExampleScenario.node[12].appl generatedBSMs 1039
scalar RSUExampleScenario.node[12].appl receivedBSMs 40211
scalar RSUExampleScenario.node[12].appl generatedWSAs 0
scalar RSUExampleScenario.node[12].appl receivedWSAs 0
scalar RSUExampleScenario.node[12].nic.phy80211p busyTime 0.048168315688179
scalar RSUExampleScenario.node[12].nic.mac1609_4 ReceivedUnicastPackets 0
scalar RSUExampleScenario.node[12].nic.mac1609_4 ReceivedBroadcasts 40211
scalar RSUExampleScenario.node[12].nic.mac1609_4 SentPackets 1039
scalar RSUExampleScenario.node[12].nic.mac1609_4 SentAcknowledgements 0
scalar RSUExampleScenario.node[12].nic.mac1609_4 RetriesExceeded 0
scalar RSUExampleScenario.node[12].nic.mac1609_4 SNIRLostPackets 7911
scalar RSUExampleScenario.node[12].nic.mac1609_4 RXTXLostPackets 0
scalar RSUExampleScenario.node[12].nic.mac1609_4 TotalLostPackets 7911
scalar RSUExampleScenario.node[12].nic.mac1609_4 DroppedPacketsInMac 0
scalar RSUExampleScenario.node[12].nic.mac1609_4 TooLittleTime 0
scalar RSUExampleScenario.node[12].nic.mac1609_4 TimesIntoBackoff 1039
scalar RSUExampleScenario.node[12].nic.mac1609_4 SlotsBackoff 1581
scalar RSUExampleScenario.node[12].nic.mac1609_4 NumInternalContention 0
scalar RSUExampleScenario.node[12].nic.mac1609_4 totalBusyTime 5.073431
scalar RSUExampleScenario.node[12].nic.mac1609_4 retriesExceeded:count 0
attr source org_car2x_veins_modules_mac_sigRetriesExceeded
scalar RSUExampleScenario.node[12].nic.mac1609_4 sentAcks:count 0
attr source org_car2x_veins_modules_mac_sigSentAck
scalar RSUExampleScenario.node[12].nic.mac1609_4 sentPackets:count 1039
attr source org_car2x_veins_modules_mac_sigSentPacket
scalar RSUExampleScenario.node[12].nic.mac1609_4 collisions:count 0
attr source org_car2x_veins_modules_mac_sigCollision
scalar RSUExampleScenario.node[12].nic.mac1609_4 channelBusy:timeavg 0.048829942252184
attr source org_car2x_veins_modules_mac_sigChannelBusy
scalar RSUExampleScenario.node[12].veinsmobility startTime 16.1
scalar RSUExampleScenario.node[12].veinsmobility totalTime 103.9
scalar RSUExampleScenario.node[12].veinsmobility stopTime 120
scalar RSUExampleScenario.node[12].veinsmobility minSpeed 9.1942258761397
scalar RSUExampleScenario.node[12].veinsmobility maxSpeed 9.3187136043694
scalar RSUExampleScenario.node[12].veinsmobility totalDistance 961.75130485349
scalar RSUExampleScenario.node[12].veinsmobility totalCO2Emission 189.66506079748
scalar RSUExampleScenario.node[13].appl generatedWSMs 0
scalar RSUExampleScenario.node[13].appl receivedWSMs 0
scalar RSUExampleScenario.node[13].appl generatedBSMs 1019
scalar RSUExampleScenario.node[13].appl receivedBSMs 40465
scalar RSUExampleScenario.node[13].appl generatedWSAs 0
scalar RSUExampleScenario.node[13].appl receivedWSAs 0
scalar RSUExampleScenario.node[13].nic.phy80211p busyTime 0.048868773307181
scalar RSUExampleScenario.node[13].nic.mac1609_4 ReceivedUnicastPackets 0
scalar RSUExampleScenario.node[13].nic.mac1609_4 ReceivedBroadcasts 40465
scalar RSUExampleScenario.node[13].nic.mac1609_4 SentPackets 1019
scalar RSUExampleScenario.node[13].nic.mac1609_4 SentAcknowledgements 0
scalar RSUExampleScenario.node[13].nic.mac1609_4 RetriesExceeded 0
scalar RSUExampleScenario.node[13].nic.mac1609_4 SNIRLostPackets 7417
scalar RSUExampleScenario.node[13].nic.mac1609_4 RXTXLostPackets 0
scalar RSUExampleScenario.node[13].nic.mac1609_4 TotalLostPackets 7417
scalar RSUExampleScenario.node[13].nic.mac1609_4 DroppedPacketsInMac 0
scalar RSUExampleScenario.node[13].nic.mac1609_4 TooLittleTime 0
scalar RSUExampleScenario.node[13].nic.mac1609_4 TimesIntoBackoff 1019
scalar RSUExampleScenario.node[13].nic.mac1609_4 SlotsBackoff 1556
scalar RSUExampleScenario.node[13].nic.mac1609_4 NumInternalContention 0
scalar RSUExampleScenario.node[13].nic.mac1609_4 totalBusyTime 5.046371
scalar RSUExampleScenario.node[13].nic.mac1609_4 retriesExceeded:count 0
attr source org_car2x_veins_modules_mac_sigRetriesExceeded
scalar RSUExampleScenario.node[13].nic.mac1609_4 sentAcks:count 0
attr source org_car2x_veins_modules_mac_sigSentAck
scalar RSUExampleScenario.node[13].nic.mac1609_4 sentPackets:count 1019
attr source org_car2x_veins_modules_mac_sigSentPacket
scalar RSUExampleScenario.node[13].nic.mac1609_4 collisions:count 0
attr source org_car2x_veins_modules_mac_sigCollision
scalar RSUExampleScenario.node[13].nic.mac1609_4 channelBusy:timeavg 0.049522777232599
attr source org_car2x_veins_modules_mac_sigChannelBusy
scalar RSUExampleScenario.node[13].veinsmobility startTime 18.1
scalar RSUExampleScenario.node[13].veinsmobility totalTime 101.9
scalar RSUExampleScenario.node[13].veinsmobility stopTime 120
scalar RSUExampleScenario.node[13].veinsmobility minSpeed 9.1411317279693
scalar RSUExampleScenario.node[13].veinsmobility maxSpeed 9.6989619364572
scalar RSUExampleScenario.node[13].veinsmobility totalDistance 944.73804650832
scalar RSUExampleScenario.node[13].veinsmobility totalCO2Emission 195.86839923554
scalar RSUExampleScenario.node[14].appl generatedWSMs 0
scalar RSUExampleScenario.node[14].appl receivedWSMs 0
scalar RSUExampleScenario.node[14].appl generatedBSMs 999
scalar RSUExampleScenario.node[14].appl receivedBSMs 41721
scalar RSUExampleScenario.node[14].appl generatedWSAs 0
scalar RSUExampleScenario.node[14].appl receivedWSAs 0
scalar RSUExampleScenario.node[14].nic.phy80211p busyTime 0.049576456456473
scalar RSUExampleScenario.node[14].nic.mac1609_4 ReceivedUnicastPackets 0
scalar RSUExampleScenario.node[14].nic.mac1609_4 ReceivedBroadcasts 41721
scalar RSUExampleScenario.node[14].nic.mac1609_4 SentPackets 999
scalar RSUExampleScenario.node[14].nic.mac1609_4 SentAcknowledgements 0
scalar RSUExampleScenario.node[14].nic.mac1609_4 RetriesExceeded 0
scalar RSUExampleScenario.node[14].nic.mac1609_4 SNIRLostPackets 5901
scalar RSUExampleScenario.node[14].nic.mac1609_4 RXTXLostPackets 0
scalar RSUExampleScenario.node[14].nic.mac1609_4 TotalLostPackets 5901
scalar RSUExampleScenario.node[14].nic.mac1609_4 DroppedPacketsInMac 0
scalar RSUExampleScenario.node[14].nic.mac1609_4 TooLittleTime 0
scalar RSUExampleScenario.node[14].nic.mac1609_4 TimesIntoBackoff 999
scalar RSUExampleScenario.node[14].nic.mac1609_4 SlotsBackoff 1486
scalar RSUExampleScenario.node[14].nic.mac1609_4 NumInternalContention 0
scalar RSUExampleScenario.node[14].nic.mac1609_4 totalBusyTime 5.017231
scalar RSUExampleScenario.node[14].nic.mac1609_4 retriesExceeded:count 0
attr source org_car2x_veins_modules_mac_sigRetriesExceeded
scalar RSUExampleScenario.node[14].nic.mac1609_4 sentAcks:count 0
attr source org_car2x_veins_modules_mac_sigSentAck
scalar RSUExampleScenario.node[14].nic.mac1609_4 sentPackets:count 999
attr source org_car2x_veins_modules_mac_sigSentPacket
scalar RSUExampleScenario.node[14].nic.mac1609_4 collisions:count 0
attr source org_car2x_veins_modules_mac_sigCollision
scalar RSUExampleScenario.node[14].nic.mac1609_4 channelBusy:timeavg 0.050222532532551
attr source org_car2x_veins_modules_mac_sigChannelBusy
scalar RSUExampleScenario.node[14].veinsmobility startTime 20.1
scalar RSUExampleScenario.node[14].veinsmobility totalTime 99.9
scalar RSUExampleScenario.node[14].veinsmobility stopTime 120
scalar RSUExampleScenario.node[14].veinsmobility minSpeed 7.4473583981426
scalar RSUExampleScenario.node[14].veinsmobility maxSpeed 10.376814406234
scalar RSUExampleScenario.node[14].veinsmobility totalDistance 802.9384276415
scalar RSUExampleScenario.node[14].veinsmobility totalCO2Emission 179.48540470033
scalar RSUExampleScenario.node[15].appl generatedWSMs 0
scalar RSUExampleScenario.node[15].appl receivedWSMs 0
scalar RSUExampleScenario.node[15].appl generatedBSMs 999
scalar RSUExampleScenario.node[15].appl receivedBSMs 40726
scalar RSUExampleScenario.node[15].appl generatedWSAs 0
scalar RSUExampleScenario.node[15].appl receivedWSAs 0
scalar RSUExampleScenario.node[15].nic.phy80211p busyTime 0.049576456456473
scalar RSUExampleScenario.node[15].nic.mac1609_4 ReceivedUnicastPackets 0
scalar RSUExampleScenario.node[15].nic.mac1609_4 ReceivedBroadcasts 40726
scalar RSUExampleScenario.node[15].nic.mac1609_4 SentPackets 999
scalar RSUExampleScenario.node[15].nic.mac1609_4 SentAcknowledgements 0
scalar RSUExampleScenario.node[15].nic.mac1609_4 RetriesExceeded 0
scalar RSUExampleScenario.node[15].nic.mac1609_4 SNIRLostPackets 6896
scalar RSUExampleScenario.node[15].nic.mac1609_4 RXTXLostPackets 0
scalar RSUExampleScenario.node[15].nic.mac1609_4 TotalLostPackets 6896
scalar RSUExampleScenario.node[15].nic.mac1609_4 DroppedPacketsInMac 0
scalar RSUExampleScenario.node[15].nic.mac1609_4 TooLittleTime 0
scalar RSUExampleScenario.node[15].nic.mac1609_4 TimesIntoBackoff 999
scalar RSUExampleScenario.node[15].nic.mac1609_4 SlotsBackoff 1536
scalar RSUExampleScenario.node[15].nic.mac1609_4 NumInternalContention 0
scalar RSUExampleScenario.node[15].nic.mac1609_4 totalBusyTime 5.017231
scalar RSUExampleScenario.node[15].nic.mac1609_4 retriesExceeded:count 0
attr source org_car2x_veins_modules_mac_sigRetriesExceeded
scalar RSUExampleScenario.node[15].nic.mac1609_4 sentAcks:count 0
attr source org_car2x_veins_modules_mac_sigSentAck
scalar RSUExampleScenario.node[15].nic.mac1609_4 sentPackets:count 999
attr source org_car2x_veins_modules_mac_sigSentPacket
scalar RSUExampleScenario.node[15].nic.mac1609_4 collisions:count 0
attr source org_car2x_veins_modules_mac_sigCollision
scalar RSUExampleScenario.node[15].nic.mac1609_4 channelBusy:timeavg 0.050222532532551
attr source org_car2x_veins_modules_mac_sigChannelBusy
scalar RSUExampleScenario.node[15].veinsmobility startTime 20.1
scalar RSUExampleScenario.node[15].veinsmobility totalTime 99.9
scalar RSUExampleScenario.node[15].veinsmobility stopTime 120
scalar RSUExampleScenario.node[15].veinsmobility minSpeed 9.1209027115962
scalar RSUExampleScenario.node[15].veinsmobility maxSpeed 9.9870305318628
scalar RSUExampleScenario.node[15].veinsmobility totalDistance 927.71973591411
scalar RSUExampleScenario.node[15].veinsmobility totalCO2Emission 195.78947403824
scalar RSUExampleScenario.node[16].appl generatedWSMs 0
scalar RSUExampleScenario.node[16].appl receivedWSMs 0
scalar RSUExampleScenario.node[16].appl generatedBSMs 979
scalar RSUExampleScenario.node[16].appl receivedBSMs 40895
scalar RSUExampleScenario.node[16].appl generatedWSAs 0
scalar RSUExampleScenario.node[16].appl receivedWSAs 0
scalar RSUExampleScenario.node[16].nic.phy80211p busyTime 0.050270561797769
scalar RSUExampleScenario.node[16].nic.mac1609_4 ReceivedUnicastPackets 0
scalar RSUExampleScenario.node[16].nic.mac1609_4 ReceivedBroadcasts 40895
scalar RSUExampleScenario.node[16].nic.mac1609_4 SentPackets 979
scalar RSUExampleScenario.node[16].nic.mac1609_4 SentAcknowledgements 0
scalar RSUExampleScenario.node[16].nic.mac1609_4 RetriesExceeded 0
scalar RSUExampleScenario.node[16].nic.mac1609_4 SNIRLostPackets 6427
scalar RSUExampleScenario.node[16].nic.mac1609_4 RXTXLostPackets 0
scalar RSUExampleScenario.node[16].nic.mac1609_4 TotalLostPackets 6427
scalar RSUExampleScenario.node[16].nic.mac1609_4 DroppedPacketsInMac 0
scalar RSUExampleScenario.node[16].nic.mac1609_4 TooLittleTime 0
scalar RSUExampleScenario.node[16].nic.mac1609_4 TimesIntoBackoff 979
scalar RSUExampleScenario.node[16].nic.mac1609_4 SlotsBackoff 1444
scalar RSUExampleScenario.node[16].nic.mac1609_4 NumInternalContention 0
scalar RSUExampleScenario.node[16].nic.mac1609_4 totalBusyTime 4.983931
scalar RSUExampleScenario.node[16].nic.mac1609_4 retriesExceeded:count 0
attr source org_car2x_veins_modules_mac_sigRetriesExceeded
scalar RSUExampleScenario.node[16].nic.mac1609_4 sentAcks:count 0
attr source org_car2x_veins_modules_mac_sigSentAck
scalar RSUExampleScenario.node[16].nic.mac1609_4 sentPackets:count 979
attr source org_car2x_veins_modules_mac_sigSentPacket
scalar RSUExampleScenario.node[16].nic.mac1609_4 collisions:count 0
attr source org_car2x_veins_modules_mac_sigCollision
scalar RSUExampleScenario.node[16].nic.mac1609_4 channelBusy:timeavg 0.050908386108291
attr source org_car2x_veins_modules_mac_sigChannelBusy
scalar RSUExampleScenario.node[16].veinsmobility startTime 22.1
scalar RSUExampleScenario.node[16].veinsmobility totalTime 97.9
scalar RSUExampleScenario.node[16].veinsmobility stopTime 120
scalar RSUExampleScenario.node[16].veinsmobility minSpeed 9.1092580718225
scalar RSUExampleScenario.node[16].veinsmobility maxSpeed 10.221790813962
scalar RSUExampleScenario.node[16].veinsmobility totalDistance 910.69333079384
scalar RSUExampleScenario.node[16].veinsmobility totalCO2Emission 194.66318221104
scalar RSUExampleScenario.node[17].appl generatedWSMs 0
scalar RSUExampleScenario.node[17].appl receivedWSMs 0
scalar RSUExampleScenario.node[17].appl generatedBSMs 959
scalar RSUExampleScenario.node[17].appl receivedBSMs 43956
scalar RSUExampleScenario.node[17].appl generatedWSAs 0
scalar RSUExampleScenario.node[17].appl receivedWSAs 0
scalar RSUExampleScenario.node[17].nic.phy80211p busyTime 0.05078106360794
scalar RSUExampleScenario.node[17].nic.mac1609_4 ReceivedUnicastPackets 0
scalar RSUExampleScenario.node[17].nic.mac1609_4 ReceivedBroadcasts 43956
scalar RSUExampleScenario.node[17].nic.mac1609_4 SentPackets 959
scalar RSUExampleScenario.node[17].nic.mac1609_4 SentAcknowledgements 0
scalar RSUExampleScenario.node[17].nic.mac1609_4 RetriesExceeded 0
scalar RSUExampleScenario.node[17].nic.mac1609_4 SNIRLostPackets 2870
scalar RSUExampleScenario.node[17].nic.mac1609_4 RXTXLostPackets 176
scalar RSUExampleScenario.node[17].nic.mac1609_4 TotalLostPackets 3046
scalar RSUExampleScenario.node[17].nic.mac1609_4 DroppedPacketsInMac 0
scalar RSUExampleScenario.node[17].nic.mac1609_4 TooLittleTime 0
scalar RSUExampleScenario.node[17].nic.mac1609_4 TimesIntoBackoff 959
scalar RSUExampleScenario.node[17].nic.mac1609_4 SlotsBackoff 1421
scalar RSUExampleScenario.node[17].nic.mac1609_4 NumInternalContention 0
scalar RSUExampleScenario.node[17].nic.mac1609_4 totalBusyTime 4.948551
scalar RSUExampleScenario.node[17].nic.mac1609_4 retriesExceeded:count 0
attr source org_car2x_veins_modules_mac_sigRetriesExceeded
scalar RSUExampleScenario.node[17].nic.mac1609_4 sentAcks:count 0
attr source org_car2x_veins_modules_mac_sigSentAck
scalar RSUExampleScenario.node[17].nic.mac1609_4 sentPackets:count 959
attr source org_car2x_veins_modules_mac_sigSentPacket
scalar RSUExampleScenario.node[17].nic.mac1609_4 collisions:count 0
attr source org_car2x_veins_modules_mac_sigCollision
scalar RSUExampleScenario.node[17].nic.mac1609_4 channelBusy:timeavg 0.0516011574557
attr source org_car2x_veins_modules_mac_sigChannelBusy
scalar RSUExampleScenario.node[17].veinsmobility startTime 24.1
scalar RSUExampleScenario.node[17].veinsmobility totalTime 95.9
scalar RSUExampleScenario.node[17].veinsmobility stopTime 120
scalar RSUExampleScenario.node[17].veinsmobility minSpeed 7.1171866544279
scalar RSUExampleScenario.node[17].veinsmobility maxSpeed 7.2416486158141
scalar RSUExampleScenario.node[17].veinsmobility totalDistance 688.38495368196
scalar RSUExampleScenario.node[17].veinsmobility totalCO2Emission 155.39550661934
scalar RSUExampleScenario.node[18].appl generatedWSMs 0
scalar RSUExampleScenario.node[18].appl receivedWSMs 0
scalar RSUExampleScenario.node[18].appl generatedBSMs 949
scalar RSUExampleScenario.node[18].appl receivedBSMs 41175
scalar RSUExampleScenario.node[18].appl generatedWSAs 0
scalar RSUExampleScenario.node[18].appl receivedWSAs 0
scalar RSUExampleScenario.node[18].nic.phy80211p busyTime 0.051322739726042
scalar RSUExampleScenario.node[18].nic.mac1609_4 ReceivedUnicastPackets 0
scalar RSUExampleScenario.node[18].nic.mac1609_4 ReceivedBroadcasts 41175
scalar RSUExampleScenario.node[18].nic.mac1609_4 SentPackets 949
scalar RSUExampleScenario.node[18].nic.mac1609_4 SentAcknowledgements 0
scalar RSUExampleScenario.node[18].nic.mac1609_4 RetriesExceeded 0
scalar RSUExampleScenario.node[18].nic.mac1609_4 SNIRLostPackets 5657
scalar RSUExampleScenario.node[18].nic.mac1609_4 RXTXLostPackets 0
scalar RSUExampleScenario.node[18].nic.mac1609_4 TotalLostPackets 5657
scalar RSUExampleScenario.node[18].nic.mac1609_4 DroppedPacketsInMac 0
scalar RSUExampleScenario.node[18].nic.mac1609_4 TooLittleTime 0
scalar RSUExampleScenario.node[18].nic.mac1609_4 TimesIntoBackoff 949
scalar RSUExampleScenario.node[18].nic.mac1609_4 SlotsBackoff 1443
scalar RSUExampleScenario.node[18].nic.mac1609_4 NumInternalContention 0
scalar RSUExampleScenario.node[18].nic.mac1609_4 totalBusyTime 4.929821474827
scalar RSUExampleScenario.node[18].nic.mac1609_4 retriesExceeded:count 0
attr source org_car2x_veins_modules_mac_sigRetriesExceeded
scalar RSUExampleScenario.node[18].nic.mac1609_4 sentAcks:count 0
attr source org_car2x_veins_modules_mac_sigSentAck
scalar RSUExampleScenario.node[18].nic.mac1609_4 sentPackets:count 949
attr source org_car2x_veins_modules_mac_sigSentPacket
scalar RSUExampleScenario.node[18].nic.mac1609_4 collisions:count 0
attr source org_car2x_veins_modules_mac_sigCollision
scalar RSUExampleScenario.node[18].nic.mac1609_4 channelBusy:timeavg 0.051947539250037
attr source org_car2x_veins_modules_mac_sigChannelBusy
scalar RSUExampleScenario.node[18].veinsmobility startTime 25.1
scalar RSUExampleScenario.node[18].veinsmobility totalTime 94.9
scalar RSUExampleScenario.node[18].veinsmobility stopTime 120
scalar RSUExampleScenario.node[18].veinsmobility minSpeed 7.4341089729839
scalar RSUExampleScenario.node[18].veinsmobility maxSpeed 11.075583574324
scalar RSUExampleScenario.node[18].veinsmobility totalDistance 787.66113315625
scalar RSUExampleScenario.node[18].veinsmobility totalCO2Emission 171.82885482154
scalar RSUExampleScenario.node[19].appl generatedWSMs 0
scalar RSUExampleScenario.node[19].appl receivedWSMs 0
scalar RSUExampleScenario.node[19].appl generatedBSMs 939
scalar RSUExampleScenario.node[19].appl receivedBSMs 43737
scalar RSUExampleScenario.node[19].appl generatedWSAs 0
scalar RSUExampleScenario.node[19].appl receivedWSAs 0
scalar RSUExampleScenario.node[19].nic.phy80211p busyTime 0.051669946751878
scalar RSUExampleScenario.node[19].nic.mac1609_4 ReceivedUnicastPackets 0
scalar RSUExampleScenario.node[19].nic.mac1609_4 ReceivedBroadcasts 43737
scalar RSUExampleScenario.node[19].nic.mac1609_4 SentPackets 939
scalar RSUExampleScenario.node[19].nic.mac1609_4 SentAcknowledgements 0
scalar RSUExampleScenario.node[19].nic.mac1609_4 RetriesExceeded 0
scalar RSUExampleScenario.node[19].nic.mac1609_4 SNIRLostPackets 2915
scalar RSUExampleScenario.node[19].nic.mac1609_4 RXTXLostPackets 0
scalar RSUExampleScenario.node[19].nic.mac1609_4 TotalLostPackets 2915
scalar RSUExampleScenario.node[19].nic.mac1609_4 DroppedPacketsInMac 0
scalar RSUExampleScenario.node[19].nic.mac1609_4 TooLittleTime 0
scalar RSUExampleScenario.node[19].nic.mac1609_4 TimesIntoBackoff 939
scalar RSUExampleScenario.node[19].nic.mac1609_4 SlotsBackoff 1419
scalar RSUExampleScenario.node[19].nic.mac1609_4 NumInternalContention 0
scalar RSUExampleScenario.node[19].nic.mac1609_4 totalBusyTime 4.910051
scalar RSUExampleScenario.node[19].nic.mac1609_4 retriesExceeded:count 0
attr source org_car2x_veins_modules_mac_sigRetriesExceeded
scalar RSUExampleScenario.node[19].nic.mac1609_4 sentAcks:count 0
attr source org_car2x_veins_modules_mac_sigSentAck
scalar RSUExampleScenario.node[19].nic.mac1609_4 sentPackets:count 939
attr source org_car2x_veins_modules_mac_sigSentPacket
scalar RSUExampleScenario.node[19].nic.mac1609_4 collisions:count 0
attr source org_car2x_veins_modules_mac_sigCollision
scalar RSUExampleScenario.node[19].nic.mac1609_4 channelBusy:timeavg 0.052290212992561
attr source org_car2x_veins_modules_mac_sigChannelBusy
scalar RSUExampleScenario.node[19].veinsmobility startTime 26.1
scalar RSUExampleScenario.node[19].veinsmobility totalTime 93.9
scalar RSUExampleScenario.node[19].veinsmobility stopTime 120
scalar RSUExampleScenario.node[19].veinsmobility minSpeed 6.984141294
scalar RSUExampleScenario.node[19].veinsmobility maxSpeed 7.2852093684864
scalar RSUExampleScenario.node[19].veinsmobility totalDistance 673.5011696432
scalar RSUExampleScenario.node[19].veinsmobility totalCO2Emission 158.73241902453
scalar RSUExampleScenario.node[20].appl generatedWSMs 0
scalar RSUExampleScenario.node[20].appl receivedWSMs 0
scalar RSUExampleScenario.node[20].appl generatedBSMs 919
scalar RSUExampleScenario.node[20].appl receivedBSMs 43452
scalar RSUExampleScenario.node[20].appl generatedWSAs 0
scalar RSUExampleScenario.node[20].appl receivedWSAs 0
scalar RSUExampleScenario.node[20].nic.phy80211p busyTime 0.052364396082712
scalar RSUExampleScenario.node[20].nic.mac1609_4 ReceivedUnicastPackets 0
scalar RSUExampleScenario.node[20].nic.mac1609_4 ReceivedBroadcasts 43452
scalar RSUExampleScenario.node[20].nic.mac1609_4 SentPackets 919
scalar RSUExampleScenario.node[20].nic.mac1609_4 SentAcknowledgements 0
scalar RSUExampleScenario.node[20].nic.mac1609_4 RetriesExceeded 0
scalar RSUExampleScenario.node[20].nic.mac1609_4 SNIRLostPackets 2820
scalar RSUExampleScenario.node[20].nic.mac1609_4 RXTXLostPackets 0
scalar RSUExampleScenario.node[20].nic.mac1609_4 TotalLostPackets 2820
scalar RSUExampleScenario.node[20].nic.mac1609_4 DroppedPacketsInMac 0
scalar RSUExampleScenario.node[20].nic.mac1609_4 TooLittleTime 0
scalar RSUExampleScenario.node[20].nic.mac1609_4 TimesIntoBackoff 919
scalar RSUExampleScenario.node[20].nic.mac1609_4 SlotsBackoff 1372
scalar RSUExampleScenario.node[20].nic.mac1609_4 NumInternalContention 0
scalar RSUExampleScenario.node[20].nic.mac1609_4 totalBusyTime 4.868431
scalar RSUExampleScenario.node[20].nic.mac1609_4 retriesExceeded:count 0
attr source org_car2x_veins_modules_mac_sigRetriesExceeded
scalar RSUExampleScenario.node[20].nic.mac1609_4 sentAcks:count 0
attr source org_car2x_veins_modules_mac_sigSentAck
scalar RSUExampleScenario.node[20].nic.mac1609_4 sentPackets:count 919
attr source org_car2x_veins_modules_mac_sigSentPacket
scalar RSUExampleScenario.node[20].nic.mac1609_4 collisions:count 0
attr source org_car2x_veins_modules_mac_sigCollision
scalar RSUExampleScenario.node[20].nic.mac1609_4 channelBusy:timeavg 0.05297531011971
attr source org_car2x_veins_modules_mac_sigChannelBusy
scalar RSUExampleScenario.node[20].veinsmobility startTime 28.1
scalar RSUExampleScenario.node[20].veinsmobility totalTime 91.9
scalar RSUExampleScenario.node[20].veinsmobility stopTime 120
scalar RSUExampleScenario.node[20].veinsmobility minSpeed 6.840877239691
scalar RSUExampleScenario.node[20].veinsmobility maxSpeed 7.3125194548808
scalar RSUExampleScenario.node[20].veinsmobility totalDistance 658.6224698919
scalar RSUExampleScenario.node[20].veinsmobility totalCO2Emission 161.34748616285
scalar RSUExampleScenario.node[21].appl generatedWSMs 0
scalar RSUExampleScenario.node[21].appl receivedWSMs 0
scalar RSUExampleScenario.node[21].appl generatedBSMs 899
scalar RSUExampleScenario.node[21].appl receivedBSMs 39658
scalar RSUExampleScenario.node[21].appl generatedWSAs 0
scalar RSUExampleScenario.node[21].appl receivedWSAs 0
scalar RSUExampleScenario.node[21].nic.phy80211p busyTime 0.053066607341503
scalar RSUExampleScenario.node[21].nic.mac1609_4 ReceivedUnicastPackets 0
scalar RSUExampleScenario.node[21].nic.mac1609_4 ReceivedBroadcasts 39658
scalar RSUExampleScenario.node[21].nic.mac1609_4 SentPackets 899
scalar RSUExampleScenario.node[21].nic.mac1609_4 SentAcknowledgements 0
scalar RSUExampleScenario.node[21].nic.mac1609_4 RetriesExceeded 0
scalar RSUExampleScenario.node[21].nic.mac1609_4 SNIRLostPackets 6214
scalar RSUExampleScenario.node[21].nic.mac1609_4 RXTXLostPackets 0
scalar RSUExampleScenario.node[21].nic.mac1609_4 TotalLostPackets 6214
scalar RSUExampleScenario.node[21].nic.mac1609_4 DroppedPacketsInMac 0
scalar RSUExampleScenario.node[21].nic.mac1609_4 TooLittleTime 0
scalar RSUExampleScenario.node[21].nic.mac1609_4 TimesIntoBackoff 899
scalar RSUExampleScenario.node[21].nic.mac1609_4 SlotsBackoff 1384
scalar RSUExampleScenario.node[21].nic.mac1609_4 NumInternalContention 0
scalar RSUExampleScenario.node[21].nic.mac1609_4 totalBusyTime 4.824731698255
scalar RSUExampleScenario.node[21].nic.mac1609_4 retriesExceeded:count 0
attr source org_car2x_veins_modules_mac_sigRetriesExceeded
scalar RSUExampleScenario.node[21].nic.mac1609_4 sentAcks:count 0
attr source org_car2x_veins_modules_mac_sigSentAck
scalar RSUExampleScenario.node[21].nic.mac1609_4 sentPackets:count 899
attr source org_car2x_veins_modules_mac_sigSentPacket
scalar RSUExampleScenario.node[21].nic.mac1609_4 collisions:count 0
attr source org_car2x_veins_modules_mac_sigCollision
scalar RSUExampleScenario.node[21].nic.mac1609_4 channelBusy:timeavg 0.053667760825987
attr source org_car2x_veins_modules_mac_sigChannelBusy
scalar RSUExampleScenario.node[21].veinsmobility startTime 30.1
scalar RSUExampleScenario.node[21].veinsmobility totalTime 89.9
scalar RSUExampleScenario.node[21].veinsmobility stopTime 120
scalar RSUExampleScenario.node[21].veinsmobility minSpeed 7.4889555354705
scalar RSUExampleScenario.node[21].veinsmobility maxSpeed 8.8531348990823
scalar RSUExampleScenario.node[21].veinsmobility totalDistance 772.32306555314
scalar RSUExampleScenario.node[21].veinsmobility totalCO2Emission 163.73283014604
scalar RSUExampleScenario.node[22].appl generatedWSMs 0
scalar RSUExampleScenario.node[22].appl receivedWSMs 0
scalar RSUExampleScenario.node[22].appl generatedBSMs 899
scalar RSUExampleScenario.node[22].appl receivedBSMs 43144
scalar RSUExampleScenario.node[22].appl generatedWSAs 0
scalar RSUExampleScenario.node[22].appl receivedWSAs 0
scalar RSUExampleScenario.node[22].nic.phy80211p busyTime 0.053066607341503
scalar RSUExampleScenario.node[22].nic.mac1609_4 ReceivedUnicastPackets 0
scalar RSUExampleScenario.node[22].nic.mac1609_4 ReceivedBroadcasts 43144
scalar RSUExampleScenario.node[22].nic.mac1609_4 SentPackets 899
scalar RSUExampleScenario.node[22].nic.mac1609_4 SentAcknowledgements 0
scalar RSUExampleScenario.node[22].nic.mac1609_4 RetriesExceeded 0
scalar RSUExampleScenario.node[22].nic.mac1609_4 SNIRLostPackets 2728
scalar RSUExampleScenario.node[22].nic.mac1609_4 RXTXLostPackets 0
scalar RSUExampleScenario.node[22].nic.mac1609_4 TotalLostPackets 2728
scalar RSUExampleScenario.node[22].nic.mac1609_4 DroppedPacketsInMac 0
scalar RSUExampleScenario.node[22].nic.mac1609_4 TooLittleTime 0
scalar RSUExampleScenario.node[22].nic.mac1609_4 TimesIntoBackoff 899
scalar RSUExampleScenario.node[22].nic.mac1609_4 SlotsBackoff 1359
scalar RSUExampleScenario.node[22].nic.mac1609_4 NumInternalContention 0
scalar RSUExampleScenario.node[22].nic.mac1609_4 totalBusyTime 4.824731
scalar RSUExampleScenario.node[22].nic.mac1609_4 retriesExceeded:count 0
attr source org_car2x_veins_modules_mac_sigRetriesExceeded
scalar RSUExampleScenario.node[22].nic.mac1609_4 sentAcks:count 0
attr source org_car2x_veins_modules_mac_sigSentAck
scalar RSUExampleScenario.node[22].nic.mac1609_4 sentPackets:count 899
attr source org_car2x_veins_modules_mac_sigSentPacket
scalar RSUExampleScenario.node[22].nic.mac1609_4 collisions:count 0
attr source org_car2x_veins_modules_mac_sigCollision
scalar RSUExampleScenario.node[22].nic.mac1609_4 channelBusy:timeavg 0.053667753058968
attr source org_car2x_veins_modules_mac_sigChannelBusy
scalar RSUExampleScenario.node[22].veinsmobility startTime 30.1
scalar RSUExampleScenario.node[22].veinsmobility totalTime 89.9
scalar RSUExampleScenario.node[22].veinsmobility stopTime 120
scalar RSUExampleScenario.node[22].veinsmobility minSpeed 6.7407935307243
scalar RSUExampleScenario.node[22].veinsmobility maxSpeed 7.3000800137502
scalar RSUExampleScenario.node[22].veinsmobility totalDistance 643.71297222222
scalar RSUExampleScenario.node[22].veinsmobility totalCO2Emission 159.3775588668
scalar RSUExampleScenario.node[23].appl generatedWSMs 0
scalar RSUExampleScenario.node[23].appl receivedWSMs 0
scalar RSUExampleScenario.node[23].appl generatedBSMs 879
scalar RSUExampleScenario.node[23].appl receivedBSMs 42733
scalar RSUExampleScenario.node[23].appl generatedWSAs 0
scalar RSUExampleScenario.node[23].appl receivedWSAs 0
scalar RSUExampleScenario.node[23].nic.phy80211p busyTime 0.053753447098987
scalar RSUExampleScenario.node[23].nic.mac1609_4 ReceivedUnicastPackets 0
scalar RSUExampleScenario.node[23].nic.mac1609_4 ReceivedBroadcasts 42733
scalar RSUExampleScenario.node[23].nic.mac1609_4 SentPackets 879
scalar RSUExampleScenario.node[23].nic.mac1609_4 SentAcknowledgements 0
scalar RSUExampleScenario.node[23].nic.mac1609_4 RetriesExceeded 0
scalar RSUExampleScenario.node[23].nic.mac1609_4 SNIRLostPackets 2699
scalar RSUExampleScenario.node[23].nic.mac1609_4 RXTXLostPackets 0
scalar RSUExampleScenario.node[23].nic.mac1609_4 TotalLostPackets 2699
scalar RSUExampleScenario.node[23].nic.mac1609_4 DroppedPacketsInMac 0
scalar RSUExampleScenario.node[23].nic.mac1609_4 TooLittleTime 0
scalar RSUExampleScenario.node[23].nic.mac1609_4 TimesIntoBackoff 879
scalar RSUExampleScenario.node[23].nic.mac1609_4 SlotsBackoff 1335
scalar RSUExampleScenario.node[23].nic.mac1609_4 NumInternalContention 0
scalar RSUExampleScenario.node[23].nic.mac1609_4 totalBusyTime 4.776871
scalar RSUExampleScenario.node[23].nic.mac1609_4 retriesExceeded:count 0
attr source org_car2x_veins_modules_mac_sigRetriesExceeded
scalar RSUExampleScenario.node[23].nic.mac1609_4 sentAcks:count 0
attr source org_car2x_veins_modules_mac_sigSentAck
scalar RSUExampleScenario.node[23].nic.mac1609_4 sentPackets:count 879
attr source org_car2x_veins_modules_mac_sigSentPacket
scalar RSUExampleScenario.node[23].nic.mac1609_4 collisions:count 0
attr source org_car2x_veins_modules_mac_sigCollision
scalar RSUExampleScenario.node[23].nic.mac1609_4 channelBusy:timeavg 0.054344379977259
attr source org_car2x_veins_modules_mac_sigChannelBusy
scalar RSUExampleScenario.node[23].veinsmobility startTime 32.1
scalar RSUExampleScenario.node[23].veinsmobility totalTime 87.9
scalar RSUExampleScenario.node[23].veinsmobility stopTime 120
scalar RSUExampleScenario.node[23].veinsmobility minSpeed 6.5642202090267
scalar RSUExampleScenario.node[23].veinsmobility maxSpeed 7.3168375069673
scalar RSUExampleScenario.node[23].veinsmobility totalDistance 628.8203177516
scalar RSUExampleScenario.node[23].veinsmobility totalCO2Emission 156.74432794473
scalar RSUExampleScenario.node[24].appl generatedWSMs 0
scalar RSUExampleScenario.node[24].appl receivedWSMs 0
scalar RSUExampleScenario.node[24].appl generatedBSMs 859
scalar RSUExampleScenario.node[24].appl receivedBSMs 42299
scalar RSUExampleScenario.node[24].appl generatedWSAs 0
scalar RSUExampleScenario.node[24].appl receivedWSAs 0
scalar RSUExampleScenario.node[24].nic.phy80211p busyTime 0.054448055878938
scalar RSUExampleScenario.node[24].nic.mac1609_4 ReceivedUnicastPackets 0
scalar RSUExampleScenario.node[24].nic.mac1609_4 ReceivedBroadcasts 42299
scalar RSUExampleScenario.node[24].nic.mac1609_4 SentPackets 859
scalar RSUExampleScenario.node[24].nic.mac1609_4 SentAcknowledgements 0
scalar RSUExampleScenario.node[24].nic.mac1609_4 RetriesExceeded 0
scalar RSUExampleScenario.node[24].nic.mac1609_4 SNIRLostPackets 2673
scalar RSUExampleScenario.node[24].nic.mac1609_4 RXTXLostPackets 0
scalar RSUExampleScenario.node[24].nic.mac1609_4 TotalLostPackets 2673
scalar RSUExampleScenario.node[24].nic.mac1609_4 DroppedPacketsInMac 0
scalar RSUExampleScenario.node[24].nic.mac1609_4 TooLittleTime 0
scalar RSUExampleScenario.node[24].nic.mac1609_4 TimesIntoBackoff 859
scalar RSUExampleScenario.node[24].nic.mac1609_4 SlotsBackoff 1257
scalar RSUExampleScenario.node[24].nic.mac1609_4 NumInternalContention 0
scalar RSUExampleScenario.node[24].nic.mac1609_4 totalBusyTime 4.726931
scalar RSUExampleScenario.node[24].nic.mac1609_4 retriesExceeded:count 0
attr source org_car2x_veins_modules_mac_sigRetriesExceeded
scalar RSUExampleScenario.node[24].nic.mac1609_4 sentAcks:count 0
attr source org_car2x_veins_modules_mac_sigSentAck
scalar RSUExampleScenario.node[24].nic.mac1609_4 sentPackets:count 859
attr source org_car2x_veins_modules_mac_sigSentPacket
scalar RSUExampleScenario.node[24].nic.mac1609_4 collisions:count 0
attr source org_car2x_veins_modules_mac_sigCollision
scalar RSUExampleScenario.node[24].nic.mac1609_4 channelBusy:timeavg 0.055028300349254
attr source org_car2x_veins_modules_mac_sigChannelBusy
scalar RSUExampleScenario.node[24].veinsmobility startTime 34.1
scalar RSUExampleScenario.node[24].veinsmobility totalTime 85.9
scalar RSUExampleScenario.node[24].veinsmobility stopTime 120
scalar RSUExampleScenario.node[24].veinsmobility minSpeed 6.5066415238184
scalar RSUExampleScenario.node[24].veinsmobility maxSpeed 7.3167060203819
scalar RSUExampleScenario.node[24].veinsmobility totalDistance 613.94164815665
scalar RSUExampleScenario.node[24].veinsmobility totalCO2Emission 152.65454364081
scalar RSUExampleScenario.node[25].appl generatedWSMs 0
scalar RSUExampleScenario.node[25].appl receivedWSMs 0
scalar RSUExampleScenario.node[25].appl generatedBSMs 849
scalar RSUExampleScenario.node[25].appl receivedBSMs 39032
scalar RSUExampleScenario.node[25].appl generatedWSAs 0
scalar RSUExampleScenario.node[25].appl receivedWSAs 0
scalar RSUExampleScenario.node[25].nic.phy80211p busyTime 0.054795382803306
scalar RSUExampleScenario.node[25].nic.mac1609_4 ReceivedUnicastPackets 0
scalar RSUExampleScenario.node[25].nic.mac1609_4 ReceivedBroadcasts 39032
scalar RSUExampleScenario.node[25].nic.mac1609_4 SentPackets 849
scalar RSUExampleScenario.node[25].nic.mac1609_4 SentAcknowledgements 0
scalar RSUExampleScenario.node[25].nic.mac1609_4 RetriesExceeded 0
scalar RSUExampleScenario.node[25].nic.mac1609_4 SNIRLostPackets 5700
scalar RSUExampleScenario.node[25].nic.mac1609_4 RXTXLostPackets 0
scalar RSUExampleScenario.node[25].nic.mac1609_4 TotalLostPackets 5700
scalar RSUExampleScenario.node[25].nic.mac1609_4 DroppedPacketsInMac 0
scalar RSUExampleScenario.node[25].nic.mac1609_4 TooLittleTime 0
scalar RSUExampleScenario.node[25].nic.mac1609_4 TimesIntoBackoff 849
scalar RSUExampleScenario.node[25].nic.mac1609_4 SlotsBackoff 1261
scalar RSUExampleScenario.node[25].nic.mac1609_4 NumInternalContention 0
scalar RSUExampleScenario.node[25].nic.mac1609_4 totalBusyTime 4.700921853611
scalar RSUExampleScenario.node[25].nic.mac1609_4 retriesExceeded:count 0
attr source org_car2x_veins_modules_mac_sigRetriesExceeded
scalar RSUExampleScenario.node[25].nic.mac1609_4 sentAcks:count 0
attr source org_car2x_veins_modules_mac_sigSentAck
scalar RSUExampleScenario.node[25].nic.mac1609_4 sentPackets:count 849
attr source org_car2x_veins_modules_mac_sigSentPacket
scalar RSUExampleScenario.node[25].nic.mac1609_4 collisions:count 0
attr source org_car2x_veins_modules_mac_sigCollision
scalar RSUExampleScenario.node[25].nic.mac1609_4 channelBusy:timeavg 0.055370104282825
attr source org_car2x_veins_modules_mac_sigChannelBusy
scalar RSUExampleScenario.node[25].veinsmobility startTime 35.1
scalar RSUExampleScenario.node[25].veinsmobility totalTime 84.9
scalar RSUExampleScenario.node[25].veinsmobility stopTime 120
scalar RSUExampleScenario.node[25].veinsmobility minSpeed 7.489315328872
scalar RSUExampleScenario.node[25].veinsmobility maxSpeed 10.850881034319
scalar RSUExampleScenario.node[25].veinsmobility totalDistance 756.97896711425
scalar RSUExampleScenario.node[25].veinsmobility totalCO2Emission 158.07937180372
scalar RSUExampleScenario.node[26].appl generatedWSMs 0
scalar RSUExampleScenario.node[26].appl receivedWSMs 0
scalar RSUExampleScenario.node[26].appl generatedBSMs 839
scalar RSUExampleScenario.node[26].appl receivedBSMs 41794
scalar RSUExampleScenario.node[26].appl generatedWSAs 0
scalar RSUExampleScenario.node[26].appl receivedWSAs 0
scalar RSUExampleScenario.node[26].nic.phy80211p busyTime 0.055138593563774
scalar RSUExampleScenario.node[26].nic.mac1609_4 ReceivedUnicastPackets 0
scalar RSUExampleScenario.node[26].nic.mac1609_4 ReceivedBroadcasts 41794
scalar RSUExampleScenario.node[26].nic.mac1609_4 SentPackets 839
scalar RSUExampleScenario.node[26].nic.mac1609_4 SentAcknowledgements 0
scalar RSUExampleScenario.node[26].nic.mac1609_4 RetriesExceeded 0
scalar RSUExampleScenario.node[26].nic.mac1609_4 SNIRLostPackets 2688
scalar RSUExampleScenario.node[26].nic.mac1609_4 RXTXLostPackets 0
scalar RSUExampleScenario.node[26].nic.mac1609_4 TotalLostPackets 2688
scalar RSUExampleScenario.node[26].nic.mac1609_4 DroppedPacketsInMac 0
scalar RSUExampleScenario.node[26].nic.mac1609_4 TooLittleTime 0
scalar RSUExampleScenario.node[26].nic.mac1609_4 TimesIntoBackoff 839
scalar RSUExampleScenario.node[26].nic.mac1609_4 SlotsBackoff 1272
scalar RSUExampleScenario.node[26].nic.mac1609_4 NumInternalContention 0
scalar RSUExampleScenario.node[26].nic.mac1609_4 totalBusyTime 4.673871
scalar RSUExampleScenario.node[26].nic.mac1609_4 retriesExceeded:count 0
attr source org_car2x_veins_modules_mac_sigRetriesExceeded
scalar RSUExampleScenario.node[26].nic.mac1609_4 sentAcks:count 0
attr source org_car2x_veins_modules_mac_sigSentAck
scalar RSUExampleScenario.node[26].nic.mac1609_4 sentPackets:count 839
attr source org_car2x_veins_modules_mac_sigSentPacket
scalar RSUExampleScenario.node[26].nic.mac1609_4 collisions:count 0
attr source org_car2x_veins_modules_mac_sigCollision
scalar RSUExampleScenario.node[26].nic.mac1609_4 channelBusy:timeavg 0.055707640047685
attr source org_car2x_veins_modules_mac_sigChannelBusy
scalar RSUExampleScenario.node[26].veinsmobility startTime 36.1
scalar RSUExampleScenario.node[26].veinsmobility totalTime 83.9
scalar RSUExampleScenario.node[26].veinsmobility stopTime 120
scalar RSUExampleScenario.node[26].veinsmobility minSpeed 6.4116681842498
scalar RSUExampleScenario.node[26].veinsmobility maxSpeed 7.3148882984298
scalar RSUExampleScenario.node[26].veinsmobility totalDistance 599.0482777711
scalar RSUExampleScenario.node[26].veinsmobility totalCO2Emission 150.97482862946
scalar RSUExampleScenario.node[27].appl generatedWSMs 0
scalar RSUExampleScenario.node[27].appl receivedWSMs 0
scalar RSUExampleScenario.node[27].appl generatedBSMs 819
scalar RSUExampleScenario.node[27].appl receivedBSMs 41265
scalar RSUExampleScenario.node[27].appl generatedWSAs 0
scalar RSUExampleScenario.node[27].appl receivedWSAs 0
scalar RSUExampleScenario.node[27].nic.phy80211p busyTime 0.055824761904768
scalar RSUExampleScenario.node[27].nic.mac1609_4 ReceivedUnicastPackets 0
scalar RSUExampleScenario.node[27].nic.mac1609_4 ReceivedBroadcasts 41265
scalar RSUExampleScenario.node[27].nic.mac1609_4 SentPackets 819
scalar RSUExampleScenario.node[27].nic.mac1609_4 SentAcknowledgements 0
scalar RSUExampleScenario.node[27].nic.mac1609_4 RetriesExceeded 0
scalar RSUExampleScenario.node[27].nic.mac1609_4 SNIRLostPackets 2697
scalar RSUExampleScenario.node[27].nic.mac1609_4 RXTXLostPackets 0
scalar RSUExampleScenario.node[27].nic.mac1609_4 TotalLostPackets 2697
scalar RSUExampleScenario.node[27].nic.mac1609_4 DroppedPacketsInMac 0
scalar RSUExampleScenario.node[27].nic.mac1609_4 TooLittleTime 0
scalar RSUExampleScenario.node[27].nic.mac1609_4 TimesIntoBackoff 819
scalar RSUExampleScenario.node[27].nic.mac1609_4 SlotsBackoff 1212
scalar RSUExampleScenario.node[27].nic.mac1609_4 NumInternalContention 0
scalar RSUExampleScenario.node[27].nic.mac1609_4 totalBusyTime 4.617691
scalar RSUExampleScenario.node[27].nic.mac1609_4 retriesExceeded:count 0
attr source org_car2x_veins_modules_mac_sigRetriesExceeded
scalar RSUExampleScenario.node[27].nic.mac1609_4 sentAcks:count 0
attr source org_car2x_veins_modules_mac_sigSentAck
scalar RSUExampleScenario.node[27].nic.mac1609_4 sentPackets:count 819
attr source org_car2x_veins_modules_mac_sigSentPacket
scalar RSUExampleScenario.node[27].nic.mac1609_4 collisions:count 0
attr source org_car2x_veins_modules_mac_sigCollision
scalar RSUExampleScenario.node[27].nic.mac1609_4 channelBusy:timeavg 0.056382063492071
attr source org_car2x_veins_modules_mac_sigChannelBusy
scalar RSUExampleScenario.node[27].veinsmobility startTime 38.1
scalar RSUExampleScenario.node[27].veinsmobility totalTime 81.9
scalar RSUExampleScenario.node[27].veinsmobility stopTime 120
scalar RSUExampleScenario.node[27].veinsmobility minSpeed 6.273915307396
scalar RSUExampleScenario.node[27].veinsmobility maxSpeed 7.3125807420119
scalar RSUExampleScenario.node[27].veinsmobility totalDistance 584.14196590311
scalar RSUExampleScenario.node[27].veinsmobility totalCO2Emission 146.81139036946
scalar RSUExampleScenario.node[28].appl generatedWSMs 0
scalar RSUExampleScenario.node[28].appl receivedWSMs 0
scalar RSUExampleScenario.node[28].appl generatedBSMs 799
scalar RSUExampleScenario.node[28].appl receivedBSMs 37874
scalar RSUExampleScenario.node[28].appl generatedWSAs 0
scalar RSUExampleScenario.node[28].appl receivedWSAs 0
scalar RSUExampleScenario.node[28].nic.phy80211p busyTime 0.05651924906133
scalar RSUExampleScenario.node[28].nic.mac1609_4 ReceivedUnicastPackets 0
scalar RSUExampleScenario.node[28].nic.mac1609_4 ReceivedBroadcasts 37874
scalar RSUExampleScenario.node[28].nic.mac1609_4 SentPackets 799
scalar RSUExampleScenario.node[28].nic.mac1609_4 SentAcknowledgements 0
scalar RSUExampleScenario.node[28].nic.mac1609_4 RetriesExceeded 0
scalar RSUExampleScenario.node[28].nic.mac1609_4 SNIRLostPackets 5548
scalar RSUExampleScenario.node[28].nic.mac1609_4 RXTXLostPackets 0
scalar RSUExampleScenario.node[28].nic.mac1609_4 TotalLostPackets 5548
scalar RSUExampleScenario.node[28].nic.mac1609_4 DroppedPacketsInMac 0
scalar RSUExampleScenario.node[28].nic.mac1609_4 TooLittleTime 0
scalar RSUExampleScenario.node[28].nic.mac1609_4 TimesIntoBackoff 799
scalar RSUExampleScenario.node[28].nic.mac1609_4 SlotsBackoff 1174
scalar RSUExampleScenario.node[28].nic.mac1609_4 NumInternalContention 0
scalar RSUExampleScenario.node[28].nic.mac1609_4 totalBusyTime 4.559431684667
scalar RSUExampleScenario.node[28].nic.mac1609_4 retriesExceeded:count 0
attr source org_car2x_veins_modules_mac_sigRetriesExceeded
scalar RSUExampleScenario.node[28].nic.mac1609_4 sentAcks:count 0
attr source org_car2x_veins_modules_mac_sigSentAck
scalar RSUExampleScenario.node[28].nic.mac1609_4 sentPackets:count 799
attr source org_car2x_veins_modules_mac_sigSentPacket
scalar RSUExampleScenario.node[28].nic.mac1609_4 collisions:count 0
attr source org_car2x_veins_modules_mac_sigCollision
scalar RSUExampleScenario.node[28].nic.mac1609_4 channelBusy:timeavg 0.057064226341269
attr source org_car2x_veins_modules_mac_sigChannelBusy
scalar RSUExampleScenario.node[28].veinsmobility startTime 40.1
scalar RSUExampleScenario.node[28].veinsmobility totalTime 79.9
scalar RSUExampleScenario.node[28].veinsmobility stopTime 120
scalar RSUExampleScenario.node[28].veinsmobility minSpeed 7.4960457854672
scalar RSUExampleScenario.node[28].veinsmobility maxSpeed 10.349942021533
scalar RSUExampleScenario.node[28].veinsmobility totalDistance 741.61248066596
scalar RSUExampleScenario.node[28].veinsmobility totalCO2Emission 151.35299199096
scalar RSUExampleScenario.node[29].appl generatedWSMs 0
scalar RSUExampleScenario.node[29].appl receivedWSMs 0
scalar RSUExampleScenario.node[29].appl generatedBSMs 799
scalar RSUExampleScenario.node[29].appl receivedBSMs 40686
scalar RSUExampleScenario.node[29].appl generatedWSAs 0
scalar RSUExampleScenario.node[29].appl receivedWSAs 0
scalar RSUExampleScenario.node[29].nic.phy80211p busyTime 0.05651924906133
scalar RSUExampleScenario.node[29].nic.mac1609_4 ReceivedUnicastPackets 0
scalar RSUExampleScenario.node[29].nic.mac1609_4 ReceivedBroadcasts 40686
scalar RSUExampleScenario.node[29].nic.mac1609_4 SentPackets 799
scalar RSUExampleScenario.node[29].nic.mac1609_4 SentAcknowledgements 0
scalar RSUExampleScenario.node[29].nic.mac1609_4 RetriesExceeded 0
scalar RSUExampleScenario.node[29].nic.mac1609_4 SNIRLostPackets 2736
scalar RSUExampleScenario.node[29].nic.mac1609_4 RXTXLostPackets 0
scalar RSUExampleScenario.node[29].nic.mac1609_4 TotalLostPackets 2736
scalar RSUExampleScenario.node[29].nic.mac1609_4 DroppedPacketsInMac 0
scalar RSUExampleScenario.node[29].nic.mac1609_4 TooLittleTime 0
scalar RSUExampleScenario.node[29].nic.mac1609_4 TimesIntoBackoff 799
scalar RSUExampleScenario.node[29].nic.mac1609_4 SlotsBackoff 1219
scalar RSUExampleScenario.node[29].nic.mac1609_4 NumInternalContention 0
scalar RSUExampleScenario.node[29].nic.mac1609_4 totalBusyTime 4.559431
scalar RSUExampleScenario.node[29].nic.mac1609_4 retriesExceeded:count 0
attr source org_car2x_veins_modules_mac_sigRetriesExceeded
scalar RSUExampleScenario.node[29].nic.mac1609_4 sentAcks:count 0
attr source org_car2x_veins_modules_mac_sigSentAck
scalar RSUExampleScenario.node[29].nic.mac1609_4 sentPackets:count 799
attr source org_car2x_veins_modules_mac_sigSentPacket
scalar RSUExampleScenario.node[29].nic.mac1609_4 collisions:count 0
attr source org_car2x_veins_modules_mac_sigCollision
scalar RSUExampleScenario.node[29].nic.mac1609_4 channelBusy:timeavg 0.05706421777222
attr source org_car2x_veins_modules_mac_sigChannelBusy
scalar RSUExampleScenario.node[29].veinsmobility startTime 40.1
scalar RSUExampleScenario.node[29].veinsmobility totalTime 79.9
scalar RSUExampleScenario.node[29].veinsmobility stopTime 120
scalar RSUExampleScenario.node[29].veinsmobility minSpeed 6.1222878142752
scalar RSUExampleScenario.node[29].veinsmobility maxSpeed 7.3067034696827
scalar RSUExampleScenario.node[29].veinsmobility totalDistance 569.2536684761
scalar RSUExampleScenario.node[29].veinsmobility totalCO2Emission 142.32968316514
scalar RSUExampleScenario.node[30].appl generatedWSMs 0
scalar RSUExampleScenario.node[30].appl receivedWSMs 0
scalar RSUExampleScenario.node[30].appl generatedBSMs 779
scalar RSUExampleScenario.node[30].appl receivedBSMs 40047
scalar RSUExampleScenario.node[30].appl generatedWSAs 0
scalar RSUExampleScenario.node[30].appl receivedWSAs 0
scalar RSUExampleScenario.node[30].nic.phy80211p busyTime 0.057195994865213
scalar RSUExampleScenario.node[30].nic.mac1609_4 ReceivedUnicastPackets 0
scalar RSUExampleScenario.node[30].nic.mac1609_4 ReceivedBroadcasts 40047
scalar RSUExampleScenario.node[30].nic.mac1609_4 SentPackets 779
scalar RSUExampleScenario.node[30].nic.mac1609_4 SentAcknowledgements 0
scalar RSUExampleScenario.node[30].nic.mac1609_4 RetriesExceeded 0
scalar RSUExampleScenario.node[30].nic.mac1609_4 SNIRLostPackets 2795
scalar RSUExampleScenario.node[30].nic.mac1609_4 RXTXLostPackets 0
scalar RSUExampleScenario.node[30].nic.mac1609_4 TotalLostPackets 2795
scalar RSUExampleScenario.node[30].nic.mac1609_4 DroppedPacketsInMac 0
scalar RSUExampleScenario.node[30].nic.mac1609_4 TooLittleTime 0
scalar RSUExampleScenario.node[30].nic.mac1609_4 TimesIntoBackoff 779
scalar RSUExampleScenario.node[30].nic.mac1609_4 SlotsBackoff 1178
scalar RSUExampleScenario.node[30].nic.mac1609_4 NumInternalContention 0
scalar RSUExampleScenario.node[30].nic.mac1609_4 totalBusyTime 4.497011
scalar RSUExampleScenario.node[30].nic.mac1609_4 retriesExceeded:count 0
attr source org_car2x_veins_modules_mac_sigRetriesExceeded
scalar RSUExampleScenario.node[30].nic.mac1609_4 sentAcks:count 0
attr source org_car2x_veins_modules_mac_sigSentAck
scalar RSUExampleScenario.node[30].nic.mac1609_4 sentPackets:count 779
attr source org_car2x_veins_modules_mac_sigSentPacket
scalar RSUExampleScenario.node[30].nic.mac1609_4 collisions:count 0
attr source org_car2x_veins_modules_mac_sigCollision
scalar RSUExampleScenario.node[30].nic.mac1609_4 channelBusy:timeavg 0.057727997432609
attr source org_car2x_veins_modules_mac_sigChannelBusy
scalar RSUExampleScenario.node[30].veinsmobility startTime 42.1
scalar RSUExampleScenario.node[30].veinsmobility totalTime 77.9
scalar RSUExampleScenario.node[30].veinsmobility stopTime 120
scalar RSUExampleScenario.node[30].veinsmobility minSpeed 6.0720936401137
scalar RSUExampleScenario.node[30].veinsmobility maxSpeed 7.3221367747554
[...]
scalar RSUExampleScenario.node[76].appl receivedBSMs 6330
scalar RSUExampleScenario.node[76].appl generatedWSAs 0
scalar RSUExampleScenario.node[76].appl receivedWSAs 0
scalar RSUExampleScenario.node[76].nic.phy80211p busyTime 0.076138947368417
scalar RSUExampleScenario.node[76].nic.mac1609_4 ReceivedUnicastPackets 0
scalar RSUExampleScenario.node[76].nic.mac1609_4 ReceivedBroadcasts 6330
scalar RSUExampleScenario.node[76].nic.mac1609_4 SentPackets 114
scalar RSUExampleScenario.node[76].nic.mac1609_4 SentAcknowledgements 0
scalar RSUExampleScenario.node[76].nic.mac1609_4 RetriesExceeded 0
scalar RSUExampleScenario.node[76].nic.mac1609_4 SNIRLostPackets 2016
scalar RSUExampleScenario.node[76].nic.mac1609_4 RXTXLostPackets 0
scalar RSUExampleScenario.node[76].nic.mac1609_4 TotalLostPackets 2016
scalar RSUExampleScenario.node[76].nic.mac1609_4 DroppedPacketsInMac 0
scalar RSUExampleScenario.node[76].nic.mac1609_4 TooLittleTime 0
scalar RSUExampleScenario.node[76].nic.mac1609_4 TimesIntoBackoff 114
scalar RSUExampleScenario.node[76].nic.mac1609_4 SlotsBackoff 190
scalar RSUExampleScenario.node[76].nic.mac1609_4 NumInternalContention 0
scalar RSUExampleScenario.node[76].nic.mac1609_4 totalBusyTime 0.864146
scalar RSUExampleScenario.node[76].nic.mac1609_4 retriesExceeded:count 0
attr source org_car2x_veins_modules_mac_sigRetriesExceeded
scalar RSUExampleScenario.node[76].nic.mac1609_4 sentAcks:count 0
attr source org_car2x_veins_modules_mac_sigSentAck
scalar RSUExampleScenario.node[76].nic.mac1609_4 sentPackets:count 114
attr source org_car2x_veins_modules_mac_sigSentPacket
scalar RSUExampleScenario.node[76].nic.mac1609_4 collisions:count 0
attr source org_car2x_veins_modules_mac_sigCollision
scalar RSUExampleScenario.node[76].nic.mac1609_4 channelBusy:timeavg 0.075802280701751
attr source org_car2x_veins_modules_mac_sigChannelBusy
scalar RSUExampleScenario.node[76].veinsmobility startTime 108.6
scalar RSUExampleScenario.node[76].veinsmobility totalTime 11.4
scalar RSUExampleScenario.node[76].veinsmobility stopTime 120
scalar RSUExampleScenario.node[76].veinsmobility minSpeed 2.6181755692311
scalar RSUExampleScenario.node[76].veinsmobility maxSpeed 6.8584616538062
scalar RSUExampleScenario.node[76].veinsmobility totalDistance 64.979941452183
scalar RSUExampleScenario.node[76].veinsmobility totalCO2Emission 21.891197340571
scalar RSUExampleScenario.node[77].appl generatedWSMs 0
scalar RSUExampleScenario.node[77].appl receivedWSMs 0
scalar RSUExampleScenario.node[77].appl generatedBSMs 99
scalar RSUExampleScenario.node[77].appl receivedBSMs 4253
scalar RSUExampleScenario.node[77].appl generatedWSAs 0
scalar RSUExampleScenario.node[77].appl receivedWSAs 0
scalar RSUExampleScenario.node[77].nic.phy80211p busyTime 0.076487272727269
scalar RSUExampleScenario.node[77].nic.mac1609_4 ReceivedUnicastPackets 0
scalar RSUExampleScenario.node[77].nic.mac1609_4 ReceivedBroadcasts 4253
scalar RSUExampleScenario.node[77].nic.mac1609_4 SentPackets 99
scalar RSUExampleScenario.node[77].nic.mac1609_4 SentAcknowledgements 0
scalar RSUExampleScenario.node[77].nic.mac1609_4 RetriesExceeded 0
scalar RSUExampleScenario.node[77].nic.mac1609_4 SNIRLostPackets 3028
scalar RSUExampleScenario.node[77].nic.mac1609_4 RXTXLostPackets 0
scalar RSUExampleScenario.node[77].nic.mac1609_4 TotalLostPackets 3028
scalar RSUExampleScenario.node[77].nic.mac1609_4 DroppedPacketsInMac 0
scalar RSUExampleScenario.node[77].nic.mac1609_4 TooLittleTime 0
scalar RSUExampleScenario.node[77].nic.mac1609_4 TimesIntoBackoff 99
scalar RSUExampleScenario.node[77].nic.mac1609_4 SlotsBackoff 155
scalar RSUExampleScenario.node[77].nic.mac1609_4 NumInternalContention 0
scalar RSUExampleScenario.node[77].nic.mac1609_4 totalBusyTime 0.753683
scalar RSUExampleScenario.node[77].nic.mac1609_4 retriesExceeded:count 0
attr source org_car2x_veins_modules_mac_sigRetriesExceeded
scalar RSUExampleScenario.node[77].nic.mac1609_4 sentAcks:count 0
attr source org_car2x_veins_modules_mac_sigSentAck
scalar RSUExampleScenario.node[77].nic.mac1609_4 sentPackets:count 99
attr source org_car2x_veins_modules_mac_sigSentPacket
scalar RSUExampleScenario.node[77].nic.mac1609_4 collisions:count 0
attr source org_car2x_veins_modules_mac_sigCollision
scalar RSUExampleScenario.node[77].nic.mac1609_4 channelBusy:timeavg 0.076129595959592
attr source org_car2x_veins_modules_mac_sigChannelBusy
scalar RSUExampleScenario.node[77].veinsmobility startTime 110.1
scalar RSUExampleScenario.node[77].veinsmobility totalTime 9.9
scalar RSUExampleScenario.node[77].veinsmobility stopTime 120
scalar RSUExampleScenario.node[77].veinsmobility minSpeed 9.6208862091251
scalar RSUExampleScenario.node[77].veinsmobility maxSpeed 11.824001641807
scalar RSUExampleScenario.node[77].veinsmobility totalDistance 109.80769928479
scalar RSUExampleScenario.node[77].veinsmobility totalCO2Emission 16.469767424866
scalar RSUExampleScenario.node[78].appl generatedWSMs 0
scalar RSUExampleScenario.node[78].appl receivedWSMs 0
scalar RSUExampleScenario.node[78].appl generatedBSMs 93
scalar RSUExampleScenario.node[78].appl receivedBSMs 5174
scalar RSUExampleScenario.node[78].appl generatedWSAs 0
scalar RSUExampleScenario.node[78].appl receivedWSAs 0
scalar RSUExampleScenario.node[78].nic.phy80211p busyTime 0.076590967741932
scalar RSUExampleScenario.node[78].nic.mac1609_4 ReceivedUnicastPackets 0
scalar RSUExampleScenario.node[78].nic.mac1609_4 ReceivedBroadcasts 5174
scalar RSUExampleScenario.node[78].nic.mac1609_4 SentPackets 93
scalar RSUExampleScenario.node[78].nic.mac1609_4 SentAcknowledgements 0
scalar RSUExampleScenario.node[78].nic.mac1609_4 RetriesExceeded 0
scalar RSUExampleScenario.node[78].nic.mac1609_4 SNIRLostPackets 1675
scalar RSUExampleScenario.node[78].nic.mac1609_4 RXTXLostPackets 0
scalar RSUExampleScenario.node[78].nic.mac1609_4 TotalLostPackets 1675
scalar RSUExampleScenario.node[78].nic.mac1609_4 DroppedPacketsInMac 0
scalar RSUExampleScenario.node[78].nic.mac1609_4 TooLittleTime 0
scalar RSUExampleScenario.node[78].nic.mac1609_4 TimesIntoBackoff 93
scalar RSUExampleScenario.node[78].nic.mac1609_4 SlotsBackoff 160
scalar RSUExampleScenario.node[78].nic.mac1609_4 NumInternalContention 0
scalar RSUExampleScenario.node[78].nic.mac1609_4 totalBusyTime 0.708749
scalar RSUExampleScenario.node[78].nic.mac1609_4 retriesExceeded:count 0
attr source org_car2x_veins_modules_mac_sigRetriesExceeded
scalar RSUExampleScenario.node[78].nic.mac1609_4 sentAcks:count 0
attr source org_car2x_veins_modules_mac_sigSentAck
scalar RSUExampleScenario.node[78].nic.mac1609_4 sentPackets:count 93
attr source org_car2x_veins_modules_mac_sigSentPacket
scalar RSUExampleScenario.node[78].nic.mac1609_4 collisions:count 0
attr source org_car2x_veins_modules_mac_sigCollision
scalar RSUExampleScenario.node[78].nic.mac1609_4 channelBusy:timeavg 0.07620956989247
attr source org_car2x_veins_modules_mac_sigChannelBusy
scalar RSUExampleScenario.node[78].veinsmobility startTime 110.7
scalar RSUExampleScenario.node[78].veinsmobility totalTime 9.3
scalar RSUExampleScenario.node[78].veinsmobility stopTime 120
scalar RSUExampleScenario.node[78].veinsmobility minSpeed 2.6974055460858
scalar RSUExampleScenario.node[78].veinsmobility maxSpeed 6.6495822726479
scalar RSUExampleScenario.node[78].veinsmobility totalDistance 50.977523487235
scalar RSUExampleScenario.node[78].veinsmobility totalCO2Emission 18.193810408648
scalar RSUExampleScenario.node[79].appl generatedWSMs 0
scalar RSUExampleScenario.node[79].appl receivedWSMs 0
scalar RSUExampleScenario.node[79].appl generatedBSMs 73
scalar RSUExampleScenario.node[79].appl receivedBSMs 4021
scalar RSUExampleScenario.node[79].appl generatedWSAs 0
scalar RSUExampleScenario.node[79].appl receivedWSAs 0
scalar RSUExampleScenario.node[79].nic.phy80211p busyTime 0.076774794520544
scalar RSUExampleScenario.node[79].nic.mac1609_4 ReceivedUnicastPackets 0
scalar RSUExampleScenario.node[79].nic.mac1609_4 ReceivedBroadcasts 4021
scalar RSUExampleScenario.node[79].nic.mac1609_4 SentPackets 73
scalar RSUExampleScenario.node[79].nic.mac1609_4 SentAcknowledgements 0
scalar RSUExampleScenario.node[79].nic.mac1609_4 RetriesExceeded 0
scalar RSUExampleScenario.node[79].nic.mac1609_4 SNIRLostPackets 1368
scalar RSUExampleScenario.node[79].nic.mac1609_4 RXTXLostPackets 0
scalar RSUExampleScenario.node[79].nic.mac1609_4 TotalLostPackets 1368
scalar RSUExampleScenario.node[79].nic.mac1609_4 DroppedPacketsInMac 0
scalar RSUExampleScenario.node[79].nic.mac1609_4 TooLittleTime 0
scalar RSUExampleScenario.node[79].nic.mac1609_4 TimesIntoBackoff 73
scalar RSUExampleScenario.node[79].nic.mac1609_4 SlotsBackoff 124
scalar RSUExampleScenario.node[79].nic.mac1609_4 NumInternalContention 0
scalar RSUExampleScenario.node[79].nic.mac1609_4 totalBusyTime 0.557617
scalar RSUExampleScenario.node[79].nic.mac1609_4 retriesExceeded:count 0
attr source org_car2x_veins_modules_mac_sigRetriesExceeded
scalar RSUExampleScenario.node[79].nic.mac1609_4 sentAcks:count 0
attr source org_car2x_veins_modules_mac_sigSentAck
scalar RSUExampleScenario.node[79].nic.mac1609_4 sentPackets:count 73
attr source org_car2x_veins_modules_mac_sigSentPacket
scalar RSUExampleScenario.node[79].nic.mac1609_4 collisions:count 0
attr source org_car2x_veins_modules_mac_sigCollision
scalar RSUExampleScenario.node[79].nic.mac1609_4 channelBusy:timeavg 0.076385890410956
attr source org_car2x_veins_modules_mac_sigChannelBusy
scalar RSUExampleScenario.node[79].veinsmobility startTime 112.7
scalar RSUExampleScenario.node[79].veinsmobility totalTime 7.3
scalar RSUExampleScenario.node[79].veinsmobility stopTime 120
scalar RSUExampleScenario.node[79].veinsmobility minSpeed 2.4201729441629
scalar RSUExampleScenario.node[79].veinsmobility maxSpeed 6.3915066505572
scalar RSUExampleScenario.node[79].veinsmobility totalDistance 37.456465696249
scalar RSUExampleScenario.node[79].veinsmobility totalCO2Emission 14.546158368082
scalar RSUExampleScenario.node[80].appl generatedWSMs 0
scalar RSUExampleScenario.node[80].appl receivedWSMs 0
scalar RSUExampleScenario.node[80].appl generatedBSMs 52
scalar RSUExampleScenario.node[80].appl receivedBSMs 2838
scalar RSUExampleScenario.node[80].appl generatedWSAs 0
scalar RSUExampleScenario.node[80].appl receivedWSAs 0
scalar RSUExampleScenario.node[80].nic.phy80211p busyTime 0.076839999999997
scalar RSUExampleScenario.node[80].nic.mac1609_4 ReceivedUnicastPackets 0
scalar RSUExampleScenario.node[80].nic.mac1609_4 ReceivedBroadcasts 2838
scalar RSUExampleScenario.node[80].nic.mac1609_4 SentPackets 52
scalar RSUExampleScenario.node[80].nic.mac1609_4 SentAcknowledgements 0
scalar RSUExampleScenario.node[80].nic.mac1609_4 RetriesExceeded 0
scalar RSUExampleScenario.node[80].nic.mac1609_4 SNIRLostPackets 1004
scalar RSUExampleScenario.node[80].nic.mac1609_4 RXTXLostPackets 0
scalar RSUExampleScenario.node[80].nic.mac1609_4 TotalLostPackets 1004
scalar RSUExampleScenario.node[80].nic.mac1609_4 DroppedPacketsInMac 0
scalar RSUExampleScenario.node[80].nic.mac1609_4 TooLittleTime 0
scalar RSUExampleScenario.node[80].nic.mac1609_4 TimesIntoBackoff 52
scalar RSUExampleScenario.node[80].nic.mac1609_4 SlotsBackoff 87
scalar RSUExampleScenario.node[80].nic.mac1609_4 NumInternalContention 0
scalar RSUExampleScenario.node[80].nic.mac1609_4 totalBusyTime 0.398268
scalar RSUExampleScenario.node[80].nic.mac1609_4 retriesExceeded:count 0
attr source org_car2x_veins_modules_mac_sigRetriesExceeded
scalar RSUExampleScenario.node[80].nic.mac1609_4 sentAcks:count 0
attr source org_car2x_veins_modules_mac_sigSentAck
scalar RSUExampleScenario.node[80].nic.mac1609_4 sentPackets:count 52
attr source org_car2x_veins_modules_mac_sigSentPacket
scalar RSUExampleScenario.node[80].nic.mac1609_4 collisions:count 0
attr source org_car2x_veins_modules_mac_sigCollision
scalar RSUExampleScenario.node[80].nic.mac1609_4 channelBusy:timeavg 0.076589999999997
attr source org_car2x_veins_modules_mac_sigChannelBusy
scalar RSUExampleScenario.node[80].veinsmobility startTime 114.8
scalar RSUExampleScenario.node[80].veinsmobility totalTime 5.2
scalar RSUExampleScenario.node[80].veinsmobility stopTime 120
scalar RSUExampleScenario.node[80].veinsmobility minSpeed 2.4894436169616
scalar RSUExampleScenario.node[80].veinsmobility maxSpeed 5.976655321101
scalar RSUExampleScenario.node[80].veinsmobility totalDistance 24.606442903835
scalar RSUExampleScenario.node[80].veinsmobility totalCO2Emission 10.585181988608
scalar RSUExampleScenario.node[81].appl generatedWSMs 0
scalar RSUExampleScenario.node[81].appl receivedWSMs 0
scalar RSUExampleScenario.node[81].appl generatedBSMs 49
scalar RSUExampleScenario.node[81].appl receivedBSMs 1988
scalar RSUExampleScenario.node[81].appl generatedWSAs 0
scalar RSUExampleScenario.node[81].appl receivedWSAs 0
scalar RSUExampleScenario.node[81].nic.phy80211p busyTime 0.076832653061222
scalar RSUExampleScenario.node[81].nic.mac1609_4 ReceivedUnicastPackets 0
scalar RSUExampleScenario.node[81].nic.mac1609_4 ReceivedBroadcasts 1988
scalar RSUExampleScenario.node[81].nic.mac1609_4 SentPackets 49
scalar RSUExampleScenario.node[81].nic.mac1609_4 SentAcknowledgements 0
scalar RSUExampleScenario.node[81].nic.mac1609_4 RetriesExceeded 0
scalar RSUExampleScenario.node[81].nic.mac1609_4 SNIRLostPackets 1632
scalar RSUExampleScenario.node[81].nic.mac1609_4 RXTXLostPackets 0
scalar RSUExampleScenario.node[81].nic.mac1609_4 TotalLostPackets 1632
scalar RSUExampleScenario.node[81].nic.mac1609_4 DroppedPacketsInMac 0
scalar RSUExampleScenario.node[81].nic.mac1609_4 TooLittleTime 0
scalar RSUExampleScenario.node[81].nic.mac1609_4 TimesIntoBackoff 98
scalar RSUExampleScenario.node[81].nic.mac1609_4 SlotsBackoff 161
scalar RSUExampleScenario.node[81].nic.mac1609_4 NumInternalContention 0
scalar RSUExampleScenario.node[81].nic.mac1609_4 totalBusyTime 0.375281
scalar RSUExampleScenario.node[81].nic.mac1609_4 retriesExceeded:count 0
attr source org_car2x_veins_modules_mac_sigRetriesExceeded
scalar RSUExampleScenario.node[81].nic.mac1609_4 sentAcks:count 0
attr source org_car2x_veins_modules_mac_sigSentAck
scalar RSUExampleScenario.node[81].nic.mac1609_4 sentPackets:count 49
attr source org_car2x_veins_modules_mac_sigSentPacket
scalar RSUExampleScenario.node[81].nic.mac1609_4 collisions:count 0
attr source org_car2x_veins_modules_mac_sigCollision
scalar RSUExampleScenario.node[81].nic.mac1609_4 channelBusy:timeavg 0.076587959183671
attr source org_car2x_veins_modules_mac_sigChannelBusy
scalar RSUExampleScenario.node[81].veinsmobility startTime 115.1
scalar RSUExampleScenario.node[81].veinsmobility totalTime 4.9
scalar RSUExampleScenario.node[81].veinsmobility stopTime 120
scalar RSUExampleScenario.node[81].veinsmobility minSpeed 9.0685431274896
scalar RSUExampleScenario.node[81].veinsmobility maxSpeed 9.1887626077941
scalar RSUExampleScenario.node[81].veinsmobility totalDistance 44.731788666555
scalar RSUExampleScenario.node[81].veinsmobility totalCO2Emission 9.1073950613254
scalar RSUExampleScenario.node[82].appl generatedWSMs 0
scalar RSUExampleScenario.node[82].appl receivedWSMs 0
scalar RSUExampleScenario.node[82].appl generatedBSMs 31
scalar RSUExampleScenario.node[82].appl receivedBSMs 1683
scalar RSUExampleScenario.node[82].appl generatedWSAs 0
scalar RSUExampleScenario.node[82].appl receivedWSAs 0
scalar RSUExampleScenario.node[82].nic.phy80211p busyTime 0.076557419354838
scalar RSUExampleScenario.node[82].nic.mac1609_4 ReceivedUnicastPackets 0
scalar RSUExampleScenario.node[82].nic.mac1609_4 ReceivedBroadcasts 1683
scalar RSUExampleScenario.node[82].nic.mac1609_4 SentPackets 31
scalar RSUExampleScenario.node[82].nic.mac1609_4 SentAcknowledgements 0
scalar RSUExampleScenario.node[82].nic.mac1609_4 RetriesExceeded 0
scalar RSUExampleScenario.node[82].nic.mac1609_4 SNIRLostPackets 599
scalar RSUExampleScenario.node[82].nic.mac1609_4 RXTXLostPackets 0
scalar RSUExampleScenario.node[82].nic.mac1609_4 TotalLostPackets 599
scalar RSUExampleScenario.node[82].nic.mac1609_4 DroppedPacketsInMac 0
scalar RSUExampleScenario.node[82].nic.mac1609_4 TooLittleTime 0
scalar RSUExampleScenario.node[82].nic.mac1609_4 TimesIntoBackoff 31
scalar RSUExampleScenario.node[82].nic.mac1609_4 SlotsBackoff 56
scalar RSUExampleScenario.node[82].nic.mac1609_4 NumInternalContention 0
scalar RSUExampleScenario.node[82].nic.mac1609_4 totalBusyTime 0.236735
scalar RSUExampleScenario.node[82].nic.mac1609_4 retriesExceeded:count 0
attr source org_car2x_veins_modules_mac_sigRetriesExceeded
scalar RSUExampleScenario.node[82].nic.mac1609_4 sentAcks:count 0
attr source org_car2x_veins_modules_mac_sigSentAck
scalar RSUExampleScenario.node[82].nic.mac1609_4 sentPackets:count 31
attr source org_car2x_veins_modules_mac_sigSentPacket
scalar RSUExampleScenario.node[82].nic.mac1609_4 collisions:count 0
attr source org_car2x_veins_modules_mac_sigCollision
scalar RSUExampleScenario.node[82].nic.mac1609_4 channelBusy:timeavg 0.076366129032257
attr source org_car2x_veins_modules_mac_sigChannelBusy
scalar RSUExampleScenario.node[82].veinsmobility startTime 116.9
scalar RSUExampleScenario.node[82].veinsmobility totalTime 3.1
scalar RSUExampleScenario.node[82].veinsmobility stopTime 120
scalar RSUExampleScenario.node[82].veinsmobility minSpeed 2.5975787335231
scalar RSUExampleScenario.node[82].veinsmobility maxSpeed 5.1969351770944
scalar RSUExampleScenario.node[82].veinsmobility totalDistance 12.893975164017
scalar RSUExampleScenario.node[82].veinsmobility totalCO2Emission 6.4899958127329
scalar RSUExampleScenario.node[83].appl generatedWSMs 0
scalar RSUExampleScenario.node[83].appl receivedWSMs 0
scalar RSUExampleScenario.node[83].appl generatedBSMs 10
scalar RSUExampleScenario.node[83].appl receivedBSMs 541
scalar RSUExampleScenario.node[83].appl generatedWSAs 0
scalar RSUExampleScenario.node[83].appl receivedWSAs 0
scalar RSUExampleScenario.node[83].nic.phy80211p busyTime 0.075920000000001
scalar RSUExampleScenario.node[83].nic.mac1609_4 ReceivedUnicastPackets 0
scalar RSUExampleScenario.node[83].nic.mac1609_4 ReceivedBroadcasts 541
scalar RSUExampleScenario.node[83].nic.mac1609_4 SentPackets 10
scalar RSUExampleScenario.node[83].nic.mac1609_4 SentAcknowledgements 0
scalar RSUExampleScenario.node[83].nic.mac1609_4 RetriesExceeded 0
scalar RSUExampleScenario.node[83].nic.mac1609_4 SNIRLostPackets 189
scalar RSUExampleScenario.node[83].nic.mac1609_4 RXTXLostPackets 0
scalar RSUExampleScenario.node[83].nic.mac1609_4 TotalLostPackets 189
scalar RSUExampleScenario.node[83].nic.mac1609_4 DroppedPacketsInMac 0
scalar RSUExampleScenario.node[83].nic.mac1609_4 TooLittleTime 0
scalar RSUExampleScenario.node[83].nic.mac1609_4 TimesIntoBackoff 10
scalar RSUExampleScenario.node[83].nic.mac1609_4 SlotsBackoff 17
scalar RSUExampleScenario.node[83].nic.mac1609_4 NumInternalContention 0
scalar RSUExampleScenario.node[83].nic.mac1609_4 totalBusyTime 0.076034
scalar RSUExampleScenario.node[83].nic.mac1609_4 retriesExceeded:count 0
attr source org_car2x_veins_modules_mac_sigRetriesExceeded
scalar RSUExampleScenario.node[83].nic.mac1609_4 sentAcks:count 0
attr source org_car2x_veins_modules_mac_sigSentAck
scalar RSUExampleScenario.node[83].nic.mac1609_4 sentPackets:count 10
attr source org_car2x_veins_modules_mac_sigSentPacket
scalar RSUExampleScenario.node[83].nic.mac1609_4 collisions:count 0
attr source org_car2x_veins_modules_mac_sigCollision
scalar RSUExampleScenario.node[83].nic.mac1609_4 channelBusy:timeavg 0.076034000000001
attr source org_car2x_veins_modules_mac_sigChannelBusy
scalar RSUExampleScenario.node[83].veinsmobility startTime 119
scalar RSUExampleScenario.node[83].veinsmobility totalTime 1
scalar RSUExampleScenario.node[83].veinsmobility stopTime 120
scalar RSUExampleScenario.node[83].veinsmobility minSpeed 2.6785314824858
scalar RSUExampleScenario.node[83].veinsmobility maxSpeed 3.8740247826373
scalar RSUExampleScenario.node[83].veinsmobility totalDistance 3.2618445824718
scalar RSUExampleScenario.node[83].veinsmobility totalCO2Emission 2.1206038720372

